



 
#*********************************************************************************
#
# Crystallographic Information File for Paulingite 
#
# Reference : 
#   Gordon, E.K., Samson, S. and Kamb, W.K.
#   Science, 154, 1004-1007, (1966)
#
#
# CIF downloaded from the IZA-SC Database of Zeolite Structures
# Ch. Baerlocher and L.B. McCusker,
# Database of Zeolite Structures: http://www.iza-structure.org/databases/ 
#
#**********************************************************************************


data_Paulingite
_chemical_name_systematic 'Paulingite'

_cell_length_a      35.093
_cell_length_b      35.093
_cell_length_c      35.093 
_cell_angle_alpha   90 
_cell_angle_beta    90 
_cell_angle_gamma   90
_cell_formula_units_Z   1

_space_group.name_H-M_ref   'I m -3 m'
_symmetry_space_group_name_H-M   'I m -3 m'
_symmetry_space_group_name_Hall  '-I 4 2 3'
_space_group.IT_number  229 

 
 loop_
_atom_site_label
_atom_site_type_symbol
_atom_site_fract_x
_atom_site_fract_y
_atom_site_fract_z
_atom_site_B_iso_or_equiv
_atom_site_occupancy
NA1  Na  0.1788  0.1788  0.1788  2.4  0.11
NA2  Na  0.2543  0.2543  0  3  0.11
NA3  Na  0.3975  0.3975  0.1445  5.5  0.11
K1  K  0.1788  0.1788  0.1788  2.4  0.574
K2  K  0.2543  0.2543  0  3  0.574
K3  K  0.3975  0.3975  0.1445  5.5  0.574
CA1  Ca  0.1788  0.1788  0.1788  2.4  0.304
CA2  Ca  0.2543  0.2543  0  3  0.304
CA3  Ca  0.3975  0.3975  0.1445  5.5  0.304
BA1  Ba  0.1788  0.1788  0.1788  2.4  0.012
BA2  Ba  0.2543  0.2543  0  3  0.012
BA3  Ba  0.3975  0.3975  0.1445  5.5  0.012
SI1  Si  0.3137  0.25  0.1863  0.47  0.774
SI2  Si  0.4021  0.25  0.0979  0.46  0.774
SI3  Si  0.3132  0.2498  0.0979  0.48  0.774
SI4  Si  0.4558  0.1072  0.0443  0.54  0.774
SI5  Si  0.4019  0.1782  0.0448  0.45  0.774
SI6  Si  0.3126  0.1785  0.0446  0.4  0.774
SI7  Si  0.2592  0.1073  0.0445  0.36  0.774
SI8  Si  0.1708  0.1076  0.0441  0.44  0.774
AL1  Al  0.3137  0.25  0.1863  0.47  0.226
AL2  Al  0.4021  0.25  0.0979  0.46  0.226
AL3  Al  0.3132  0.2498  0.0979  0.48  0.226
AL4  Al  0.4558  0.1072  0.0443  0.54  0.226
AL5  Al  0.4019  0.1782  0.0448  0.45  0.226
AL6  Al  0.3126  0.1785  0.0446  0.4  0.226
AL7  Al  0.2592  0.1073  0.0445  0.36  0.226
AL8  Al  0.1708  0.1076  0.0441  0.44  0.226
O1  O  0.1635  0.0933  0  1.4  1
O2  O  0.2679  0.0968  0  1.3  1
O3  O  0.3041  0.1886  0  1.4  1
O4  O  0.4092  0.19  0  1.8  1
O5  O  0.4484  0.0952  0  1.6  1
O6  O  0.4489  0.3794  0  1.8  1
O7  O  0.0713  0.0713  0.161  1.4  1
O8  O  0.4308  0.4308  0.2322  1.9  1
O9  O  0.1437  0.1437  0.0545  1.5  1
O10  O  0.286  0.286  0.1965  1.6  1
O11  O  0.2868  0.2868  0.089  1.7  1
O12  O  0.4299  0.4299  0.0548  2  1
O13  O  0.2152  0.1211  0.0496  1.2  1
O14  O  0.287  0.1414  0.0582  1.8  1
O15  O  0.3573  0.1672  0.0525  1.5  1
O16  O  0.4278  0.1417  0.0573  2.3  1
O17  O  0.3002  0.2163  0.0693  1.9  1
O18  O  0.4148  0.2142  0.071  1.9  1
O19  O  0.3576  0.2623  0.0909  1.6  1
O20  O  0.308  0.2351  0.1419  1.5  1
H2O1  O2-(H2O)  0.14  0.14  0.14  5.7  1
H2O2  O2-(H2O)  0.217  0.217  0.217  4.2  1
H2O3  O2-(H2O)  0.209  0.209  0.053  6.2  1
H2O4  O2-(H2O)  0.348  0.348  0.2  5.5  1
H2O5  O2-(H2O)  0.35  0.35  0.082  11.5  1
H2O6  O2-(H2O)  0.22  0.22  0.14  15  1
H2O7  O2-(H2O)  0.139  0.139  0.217  15  1
H2O8  O2-(H2O)  0.334  0.275  0  15  1
H2O9  O2-(H2O)  0.422  0.285  0  15  1
H2O10  O2-(H2O)  0.292  0.5  0  15  1
H2O11  O2-(H2O)  0.367  0.367  0  15  1
H2O12  O2-(H2O)  0.178  0  0  15  1
H2O13  O2-(H2O)  0.27  0  0  15  1
H2O14  O2-(H2O)  0.458  0  0  15  1

# End of data for Paulingite


			
	