data_1_publ

_pd_block_id
  2018-07-25T12:51|1||

_audit_creation_method  "from EXP file using GSAS2CIF"
_audit_creation_date                   2018-07-25T12:51
_audit_author_name                     ""
_audit_update_record
; 2018-07-25T12:51  Initial CIF as created by GSAS2CIF
;

#=============================================================================
# this information describes the project, paper etc. for the CIF             #
# Acta Cryst. Section C papers and editorial correspondence is generated     #
# from the information in this section                                       #
#                                                                            #
#   (from)   CIF submission form for Rietveld refinements (Acta Cryst. C)    #
#                                                 Version 14 December 1998   #
#=============================================================================
# 1. SUBMISSION DETAILS

_publ_contact_author_name            ?   # Name of author for correspondence
_publ_contact_author_address             # Address of author for correspondence
; ?
;
_publ_contact_author_email           ?
_publ_contact_author_fax             ?
_publ_contact_author_phone           ?

_publ_contact_letter
; ?
;

_publ_requested_journal              ?
_publ_requested_coeditor_name        ?
_publ_requested_category             ?   # Acta C: one of CI/CM/CO/FI/FM/FO

#==============================================================================

# 2. PROCESSING SUMMARY (IUCr Office Use Only)

_journal_data_validation_number      ?

_journal_date_recd_electronic        ?
_journal_date_to_coeditor            ?
_journal_date_from_coeditor          ?
_journal_date_accepted               ?
_journal_date_printers_first         ?
_journal_date_printers_final         ?
_journal_date_proofs_out             ?
_journal_date_proofs_in              ?
_journal_coeditor_name               ?
_journal_coeditor_code               ?
_journal_coeditor_notes
; ?
;
_journal_techeditor_code             ?
_journal_techeditor_notes
; ?
;
_journal_coden_ASTM                  ?
_journal_name_full                   ?
_journal_year                        ?
_journal_volume                      ?
_journal_issue                       ?
_journal_page_first                  ?
_journal_page_last                   ?
_journal_paper_category              ?
_journal_suppl_publ_number           ?
_journal_suppl_publ_pages            ?

#==============================================================================

# 3. TITLE AND AUTHOR LIST

_publ_section_title
; ?
;
_publ_section_title_footnote
; ?
;

# The loop structure below should contain the names and addresses of all
# authors, in the required order of publication. Repeat as necessary.

loop_
	_publ_author_name
        _publ_author_footnote
	_publ_author_address
 ?                                   #<--'Last name, first name'
; ?
;
; ?
;

#==============================================================================

# 4. TEXT

_publ_section_synopsis
;  ?
;
_publ_section_abstract
; ?
;
_publ_section_comment
; ?
;
_publ_section_exptl_prep      # Details of the preparation of the sample(s)
                              # should be given here.
; ?
;
_publ_section_exptl_refinement
; ?
;
_publ_section_references
; ?
;
_publ_section_figure_captions
; ?
;
_publ_section_acknowledgements
; ?
;

#=============================================================================
# 5. OVERALL REFINEMENT & COMPUTING DETAILS

_refine_special_details
; ?
;
_pd_proc_ls_special_details
; ?
;

# The following items are used to identify the programs used.
_computing_molecular_graphics     ?
_computing_publication_material   ?

_refine_ls_weighting_scheme       ?
_refine_ls_weighting_details      ?
_refine_ls_hydrogen_treatment     ?
_refine_ls_extinction_method      ?
_refine_ls_extinction_coef        ?
_refine_ls_number_constraints     ?

_refine_ls_restrained_S_all       ?
_refine_ls_restrained_S_obs       ?

#==============================================================================
# 6. SAMPLE PREPARATION DATA

# (In the unusual case where multiple samples are used in a single
#  Rietveld study, this information should be moved into the phase
#  blocks)

# The following three fields describe the preparation of the material.
# The cooling rate is in K/min.  The pressure at which the sample was
# prepared is in kPa.  The temperature of preparation is in K.

_pd_prep_cool_rate                ?
_pd_prep_pressure                 ?
_pd_prep_temperature              ?

_pd_char_colour                   ?       # use ICDD colour descriptions
_refine_ls_shift/su_max                0.22
_refine_ls_shift/su_mean               0.03
_computing_structure_refinement        GSAS
_refine_ls_number_parameters           143
_refine_ls_goodness_of_fit_all         3.77
_refine_ls_number_restraints           94
_refine_ls_matrix_type                 full
#==============================================================================
# 7. CHEMICAL, STRUCTURAL AND CRYSTAL DATA

_pd_char_particle_morphology      ?

_chemical_name_systematic
; ?
;
_chemical_name_common             ?
_chemical_formula_moiety          ?
_chemical_formula_structural      ?
_chemical_formula_analytical      ?
_chemical_melting_point           ?
_chemical_compound_source         ?       # for minerals and
                                          # natural products
_symmetry_space_group_name_Hall   ?

_exptl_crystal_F_000               ?
_exptl_crystal_density_diffrn      ?
_exptl_crystal_density_meas        ?
_exptl_crystal_density_method      ?

_cell_measurement_temperature     ?

_cell_special_details
; ?
;

_geom_special_details             ?

# The following item identifies the program(s) used (if appropriate).
_computing_structure_solution     ?

#==============================================================================

# 8. Phase information from GSAS

_pd_phase_name                         tetra
_cell_length_a                         14.2913(5)
_cell_length_b                         14.2913
_cell_length_c                         17.9324(14)
_cell_angle_alpha                      90.0
_cell_angle_beta                       90.0
_cell_angle_gamma                      90.0
_cell_volume                           3662.5(4)
_symmetry_cell_setting                 tetragonal
_symmetry_space_group_name_H-M         "P -4 21 c"
loop_ _symmetry_equiv_pos_site_id _symmetry_equiv_pos_as_xyz
       1 +x,+y,+z 
       2 +y,-x,-z 
       3 -x,-y,+z 
       4 -y,+x,-z 
       5 -x+1/2,+y+1/2,-z+1/2 
       6 +y+1/2,+x+1/2,+z+1/2 
       7 +x+1/2,-y+1/2,-z+1/2 
       8 -y+1/2,-x+1/2,+z+1/2 

# ATOMIC COORDINATES AND DISPLACEMENT PARAMETERS


loop_
      _atom_site_type_symbol
      _atom_site_label
      _atom_site_fract_x
      _atom_site_fract_y
      _atom_site_fract_z
      _atom_site_occupancy
      _atom_site_thermal_displace_type
      _atom_site_U_iso_or_equiv
      _atom_site_symmetry_multiplicity
Al
Al1     0.1001(8)    0.3844(8)    0.4203(7)    1.0        Uiso   0.0125(8)     8
Al
Al2     0.2406(9)    0.2332(9)    0.1611(7)    1.0        Uiso   0.0125(8)     8
Al
Al3     0.2370(9)    0.1096(8)    0.4573(7)    1.0        Uiso   0.0125(8)     8
Al
Al4     0.3777(8)    0.4012(8)    0.4209(7)    1.0        Uiso   0.0125(8)     8
P 
P5      0.2449(7)    0.2703(6)    0.3353(5)    1.0        Uiso   0.0125(8)     8
P 
P6      0.3887(7)    0.1021(6)    0.0717(5)    1.0        Uiso   0.0125(8)     8
P 
P7      0.1059(6)    0.1105(6)    0.0843(5)    1.0        Uiso   0.0125(8)     8
P 
P8      0.2732(7)    0.3938(7)    0.0511(5)    1.0        Uiso   0.0125(8)     8
O 
O9      0.3624(9)   -0.0024(5)    0.0610(8)    1.0        Uiso   0.0283(23)    8
O 
O10     0.1622(6)    0.3366(7)    0.3455(6)    1.0        Uiso   0.0283(23)    8
O 
O11     0.4845(5)    0.1051(9)    0.1099(7)    1.0        Uiso   0.0283(23)    8
O 
O12     0.2011(6)    0.4018(10)  -0.0102(5)    1.0        Uiso   0.0283(23)    8
O 
O13     0.2576(11)   0.2425(10)   0.2547(4)    1.0        Uiso   0.0283(23)    8
O 
O14     0.2409(10)   0.3396(6)    0.1184(5)    1.0        Uiso   0.0283(23)    8
O 
O15     0.3251(6)    0.1578(7)    0.1234(6)    1.0        Uiso   0.0283(23)    8
O 
O16     0.1353(6)    0.1779(7)    0.1450(5)    1.0        Uiso   0.0283(23)    8
O 
O17     0.3333(6)    0.3246(7)    0.3573(6)    1.0        Uiso   0.0283(23)    8
O 
O18     0.2350(11)   0.1834(6)    0.3820(5)    1.0        Uiso   0.0283(23)    8
O 
O19     0.3465(6)    0.1079(11)   0.4974(5)    1.0        Uiso   0.0283(23)    8
O 
O20     1.0002(4)    0.1019(10)   0.0879(8)    1.0        Uiso   0.0283(23)    8
O 
O21     0.1340(9)    0.1484(9)    0.0090(4)    1.0        Uiso   0.0283(23)    8
O 
O22     0.1533(8)    0.0160(5)    0.0955(8)    1.0        Uiso   0.0283(23)    8
O 
O23     0.3612(6)    0.3498(7)    0.0199(6)    1.0        Uiso   0.0283(23)    8
O 
O24     0.2079(9)   -0.0033(5)    0.4253(7)    1.0        Uiso   0.0283(23)    8
 
# If you change Z, be sure to change all 3 of the following
_chemical_formula_sum                  "Al O4 P"
_chemical_formula_weight               121.95
_cell_formula_units_Z                  32

# MOLECULAR GEOMETRY

loop_
      _geom_bond_atom_site_label_1
      _geom_bond_atom_site_label_2
      _geom_bond_distance
      _geom_bond_site_symmetry_1
      _geom_bond_site_symmetry_2
      _geom_bond_publ_flag
  Al1       P5               3.044(15)  .      1_555  N
  Al1       P6               3.031(16)  .      7_455  N
  Al1       O9               1.737(14)  .      5_555  N
  Al1       O10              1.748(16)  .      1_555  N
  Al1       O11              1.745(15)  .      7_455  N
  Al1       O12              1.746(15)  .      8_555  N
  Al2       P7               2.946(15)  .      1_555  N
  Al2       P8               3.062(16)  .      1_555  N
  Al2       O13              1.701(14)  .      1_555  N
  Al2       O14              1.703(15)  .      1_555  N
  Al2       O15              1.754(16)  .      1_555  N
  Al2       O16              1.724(16)  .      1_555  N
  Al3       P8               3.023(16)  .      8_555  N
  Al3       O18              1.713(15)  .      1_555  N
  Al3       O19              1.723(15)  .      1_555  N
  Al3       O23              1.726(16)  .      8_555  N
  Al3       O24              1.763(14)  .      1_555  N
  Al4       P5               3.076(15)  .      1_555  N
  Al4       P7               3.001(14)  .      5_555  N
  Al4       P7               2.937(16)  .      8_555  N
  Al4       O17              1.705(15)  .      1_555  N
  Al4       O20              1.757(13)  .      7_455  N
  Al4       O21              1.699(15)  .      8_555  N
  Al4       O22              1.724(14)  .      5_555  N
  P5        Al1              3.044(15)  .      1_555  N
  P5        Al4              3.076(15)  .      1_555  N
  P5        O10              1.525(13)  .      1_555  N
  P5        O13              1.510(12)  .      1_555  N
  P5        O17              1.534(13)  .      1_555  N
  P5        O18              1.505(12)  .      1_555  N
  P6        Al1              3.031(16)  .      7_555  N
  P6        O9               1.552(11)  .      1_555  N
  P6        O11              1.533(13)  .      1_555  N
  P6        O15              1.523(14)  .      1_555  N
  P6        O19              1.521(12)  .      8_554  N
  P7        Al2              2.946(15)  .      1_555  N
  P7        Al4              3.001(14)  .      5_545  N
  P7        Al4              2.937(16)  .      8_554  N
  P7        O16              1.513(13)  .      1_555  N
  P7        O20              1.518(11)  .      1_455  N
  P7        O21              1.510(12)  .      1_555  N
  P7        O22              1.524(12)  .      1_555  N
  P8        Al2              3.062(16)  .      1_555  N
  P8        Al3              3.023(16)  .      8_554  N
  P8        O12              1.510(13)  .      1_555  N
  P8        O14              1.506(13)  .      1_555  N
  P8        O23              1.514(13)  .      1_555  N
  P8        O24              1.554(13)  .      5_555  N
  O9        Al1              1.737(14)  .      5_545  N
  O9        P6               1.552(11)  .      1_555  N
  O10       Al1              1.748(16)  .      1_555  N
  O10       P5               1.525(13)  .      1_555  N
  O11       Al1              1.745(15)  .      7_555  N
  O11       P6               1.533(13)  .      1_555  N
  O12       Al1              1.746(15)  .      8_554  N
  O12       P8               1.510(13)  .      1_555  N
  O13       Al2              1.701(14)  .      1_555  N
  O13       P5               1.510(12)  .      1_555  N
  O14       Al2              1.703(15)  .      1_555  N
  O14       P8               1.506(13)  .      1_555  N
  O15       Al2              1.754(16)  .      1_555  N
  O15       P6               1.523(14)  .      1_555  N
  O16       Al2              1.724(16)  .      1_555  N
  O16       P7               1.513(13)  .      1_555  N
  O17       Al4              1.705(15)  .      1_555  N
  O17       P5               1.534(13)  .      1_555  N
  O18       Al3              1.713(15)  .      1_555  N
  O18       P5               1.505(12)  .      1_555  N
  O19       Al3              1.723(15)  .      1_555  N
  O19       P6               1.521(12)  .      8_555  N
  O20       Al4              1.757(13)  .      7_555  N
  O20       P7               1.518(11)  .      1_655  N
  O21       Al4              1.699(15)  .      8_554  N
  O21       P7               1.510(12)  .      1_555  N
  O22       Al4              1.724(14)  .      5_545  N
  O22       P7               1.524(12)  .      1_555  N
  O23       Al3              1.726(16)  .      8_554  N
  O23       P8               1.514(13)  .      1_555  N
  O24       Al3              1.763(14)  .      1_555  N
  O24       P8               1.554(13)  .      5_545  N

loop_
      _geom_angle_atom_site_label_1
      _geom_angle_atom_site_label_2
      _geom_angle_atom_site_label_3
      _geom_angle
      _geom_angle_site_symmetry_1
      _geom_angle_site_symmetry_2
      _geom_angle_site_symmetry_3
      _geom_angle_publ_flag
  O9        Al1       O10               110.8(9)      5_555  .      1_555  N
  O9        Al1       O11               105.8(9)      5_555  .      7_455  N
  O9        Al1       O12               121.3(9)      5_555  .      8_555  N
  O10       Al1       O11               106.0(8)      1_555  .      7_455  N
  O10       Al1       O12               106.4(8)      1_555  .      8_555  N
  O11       Al1       O12               105.5(9)      7_455  .      8_555  N
  O13       Al2       O14               111.9(9)      1_555  .      1_555  N
  O13       Al2       O15               109.3(9)      1_555  .      1_555  N
  O13       Al2       O16               109.0(9)      1_555  .      1_555  N
  O14       Al2       O15               111.9(9)      1_555  .      1_555  N
  O14       Al2       O16               109.6(9)      1_555  .      1_555  N
  O15       Al2       O16               104.8(8)      1_555  .      1_555  N
  O18       Al3       O19               110.7(9)      1_555  .      1_555  N
  O18       Al3       O23               110.6(8)      1_555  .      8_555  N
  O18       Al3       O24               107.7(9)      1_555  .      1_555  N
  O19       Al3       O23               112.6(8)      1_555  .      8_555  N
  O19       Al3       O24               109.7(9)      1_555  .      1_555  N
  O23       Al3       O24               105.2(8)      8_555  .      1_555  N
  O17       Al4       O20               107.1(8)      1_555  .      7_455  N
  O17       Al4       O21               110.5(8)      1_555  .      8_555  N
  O17       Al4       O22               113.6(9)      1_555  .      5_555  N
  O20       Al4       O21               107.1(9)      7_455  .      8_555  N
  O20       Al4       O22               105.4(8)      7_455  .      5_555  N
  O21       Al4       O22               112.6(9)      8_555  .      5_555  N
  O10       P5        O13               111.8(9)      1_555  .      1_555  N
  O10       P5        O17               107.0(7)      1_555  .      1_555  N
  O10       P5        O18               112.0(9)      1_555  .      1_555  N
  O13       P5        O17               106.3(9)      1_555  .      1_555  N
  O13       P5        O18               109.0(8)      1_555  .      1_555  N
  O17       P5        O18               110.6(9)      1_555  .      1_555  N
  O9        P6        O11               107.3(9)      1_555  .      1_555  N
  O9        P6        O15               115.7(9)      1_555  .      1_555  N
  O9        P6        O19               111.4(9)      1_555  .      8_554  N
  O11       P6        O15               104.2(8)      1_555  .      1_555  N
  O11       P6        O19              110.4(10)      1_555  .      8_554  N
  O15       P6        O19               107.5(8)      1_555  .      8_554  N
  O16       P7        O20               107.3(9)      1_555  .      1_455  N
  O16       P7        O21               110.0(8)      1_555  .      1_555  N
  O16       P7        O22               110.3(8)      1_555  .      1_555  N
  O20       P7        O21               109.3(9)      1_455  .      1_555  N
  O20       P7        O22               111.5(9)      1_455  .      1_555  N
  O21       P7        O22               108.5(9)      1_555  .      1_555  N
  O12       P8        O14               114.4(9)      1_555  .      1_555  N
  O12       P8        O23               109.2(8)      1_555  .      1_555  N
  O12       P8        O24               104.2(9)      1_555  .      5_555  N
  O14       P8        O23               109.7(9)      1_555  .      1_555  N
  O14       P8        O24               108.8(8)      1_555  .      5_555  N
  O23       P8        O24               110.4(8)      1_555  .      5_555  N
  Al1       O9        P6               143.0(10)      5_545  .      1_555  N
  Al1       O10       P5                136.7(9)      1_555  .      1_555  N
  Al1       O11       P6               135.2(10)      7_555  .      1_555  N
  Al1       O12       P8               174.6(12)      8_554  .      1_555  N
  Al2       O13       P5               161.5(12)      1_555  .      1_555  N
  Al2       O14       P8                145.2(9)      1_555  .      1_555  N
  Al2       O15       P6                165.1(9)      1_555  .      1_555  N
  Al2       O16       P7                130.9(8)      1_555  .      1_555  N
  Al4       O17       P5                143.5(8)      1_555  .      1_555  N
  Al3       O18       P5                160.9(9)      1_555  .      1_555  N
  Al3       O19       P6                143.5(8)      1_555  .      8_555  N
  Al4       O20       P7               171.8(12)      7_555  .      1_655  N
  Al4       O21       P7               132.4(10)      8_554  .      1_555  N
  Al4       O22       P7                134.9(9)      5_545  .      1_555  N
  Al3       O23       P8                137.7(8)      8_554  .      1_555  N
  Al3       O24       P8               137.4(10)      1_555  .      5_545  N

# Powder diffraction data for histogram  1
#==============================================================================
# 9. INSTRUMENT CHARACTERIZATION

_exptl_special_details
; ?
;

# if regions of the data are excluded, the reason(s) are supplied here:
_pd_proc_info_excluded_regions
; ?
;

# The following item is used to identify the equipment used to record
# the powder pattern when the diffractogram was measured at a laboratory
# other than the authors' home institution, e.g. when neutron or synchrotron
# radiation is used.

_pd_instr_location
; ?
;
_pd_calibration_special_details           # description of the method used
                                          # to calibrate the instrument
; ?
;

_diffrn_ambient_temperature       ?
_diffrn_source                    ?
_diffrn_source_target             ?
_diffrn_source_type               ?
_diffrn_measurement_device_type   ?
_diffrn_detector                  ?
_diffrn_detector_type             ?       # make or model of detector

_pd_meas_scan_method              ?       # options are 'step', 'cont',
                                          # 'tof', 'fixed' or
                                          # 'disp' (= dispersive)
_pd_meas_special_details
;  ?
;

# The following two items identify the program(s) used (if appropriate).
_computing_data_collection        ?
_computing_data_reduction         ?

# Describe any processing performed on the data, prior to refinement.
# For example: a manual Lp correction or a precomputed absorption correction
_pd_proc_info_data_reduction      ?

# The following item is used for angular dispersive measurements only.

_diffrn_radiation_monochromator   ?

# The following items are used to define the size of the instrument.
# Not all distances are appropriate for all instrument types.

_pd_instr_dist_src/mono           ?
_pd_instr_dist_mono/spec          ?
_pd_instr_dist_src/spec           ?
_pd_instr_dist_spec/anal          ?
_pd_instr_dist_anal/detc          ?
_pd_instr_dist_spec/detc          ?

# 10. Specimen size and mounting information

# The next three fields give the specimen dimensions in mm.  The equatorial
# plane contains the incident and diffracted beam.

_pd_spec_size_axial               ?       # perpendicular to
                                          # equatorial plane

_pd_spec_size_equat               ?       # parallel to
                                          # scattering vector
                                          # in transmission

_pd_spec_size_thick               ?       # parallel to
                                          # scattering vector
                                          # in reflection

_pd_spec_mounting                         # This field should be
                                          # used to give details of the
                                          # container.
; ?
;

_pd_spec_mount_mode               ?       # options are 'reflection'
                                          # or 'transmission'

_pd_spec_shape                    ?       # options are 'cylinder'
                                          # 'flat_sheet' or 'irregular'


loop_ _atom_type_symbol
      _atom_type_number_in_cell
      _atom_type_scat_dispersion_real
      _atom_type_scat_dispersion_imag
      _atom_type_scat_Cromer_Mann_a1
      _atom_type_scat_Cromer_Mann_a2
      _atom_type_scat_Cromer_Mann_a3
      _atom_type_scat_Cromer_Mann_a4
      _atom_type_scat_Cromer_Mann_b1
      _atom_type_scat_Cromer_Mann_b2
      _atom_type_scat_Cromer_Mann_b3
      _atom_type_scat_Cromer_Mann_b4
      _atom_type_scat_Cromer_Mann_c
      _atom_type_scat_source
  Al        32.0    0.000    0.000
 6.42020 3.03870 1.90020 0.74260 1.59360 31.5472 1.96460 85.0886 1.11510 
  International_Tables_Vol_C
  P         32.0    0.000    0.000
 6.43450 1.90670 4.17910 27.1570 1.78000 0.52600 1.49080 68.1645 1.11490 
  International_Tables_Vol_C
  O         128.0    0.000    0.000
 3.04850 13.2771 2.28680 5.70110 1.54630 0.32390 0.86700 32.9089 0.25080 
  International_Tables_Vol_C
_diffrn_radiation_probe                x-ray
_diffrn_radiation_polarisn_ratio       ?
_diffrn_radiation_wavelength           0.692648
_diffrn_radiation_type                 ?
_pd_proc_ls_prof_R_factor              0.0512
_pd_proc_ls_prof_wR_factor             0.0690
_pd_proc_ls_prof_wR_expected           0.0207
_refine_ls_R_Fsqd_factor               0.08700

_pd_proc_ls_background_function
;   GSAS Background function number 1 with 26 terms.
 Shifted Chebyshev function of 1st kind
      1:    1641.76     2:   -672.060     3:    116.383     4:    105.862    
      5:   -243.739     6:    97.5744     7:    175.944     8:   -156.124    
      9:    22.4820    10:    34.0399    11:   -85.8467    12:    8.55213    
     13:    40.5670    14:   -40.2147    15:   -3.56798    16:    24.7632    
     17:   -19.9129    18:   -1.13889    19:   -20.8363    20:    27.0855    
     21:    1.68008    22:   -20.8287    23:    42.2233    24:   -15.7005    
     25:   -17.2717    26:    23.1672    
;

_exptl_absorpt_process_details
;   GSAS Absorption/surface roughness correction: function number 0
 No correction is applied.
;
_exptl_absorpt_correction_T_min        1.00000
_exptl_absorpt_correction_T_max        1.00000
# Extinction correction
_gsas_exptl_extinct_corr_T_min         1.00000
_gsas_exptl_extinct_corr_T_max         1.00000

_pd_proc_ls_profile_function
;
 CW Profile function number 4 with  16 terms
 Pseudovoigt profile coefficients as parameterized in
 P. Thompson, D.E. Cox & J.B. Hastings (1987). J. Appl. Cryst.,20,79-83.
 Asymmetry correction of L.W. Finger, D.E. Cox & A. P. Jephcoat (1994).
 J. Appl. Cryst.,27,892-900.
 Microstrain broadening by P.W. Stephens,  (1999). J. Appl. Cryst.,32,281-289.
 #1(GU)   =    0.000 #2(GV)   =   35.455 #3(GW)   =    1.840
 #4(GP)   =    1.064 #5(LX)   =    0.000 #6(ptec) =     1.32
 #7(trns) =     0.00 #8(shft) =   0.0000 #9(sfec) =     0.00
 #10(S/L) =   0.0145 #11(H/L) =   0.0044 #12(eta) =   0.9896
 #13(S400 ) =  2.0E-02 #14(S004 ) =  3.5E-02
 #15(S220 ) =  3.7E-02 #16(S202 ) =  1.1E-01
 Peak tails are ignored  where the intensity is below 0.0010 times the peak
   Aniso. broadening axis   0.0   0.0   1.0
;
_pd_proc_ls_peak_cutoff 0.00100
_pd_proc_info_datetime                 2018-07-25T12:51:20
_pd_calc_method                        "Rietveld Refinement"

#---- raw/calc data loop -----
_pd_meas_2theta_range_min              0.0077
_pd_meas_2theta_range_max              49.1027
_pd_meas_2theta_range_inc              0.015
_pd_proc_2theta_range_min              -0.02692
_pd_proc_2theta_range_max              49.06808
_pd_proc_2theta_range_inc              0.015

loop_
      _pd_meas_counts_total
      _pd_proc_ls_weight
      _pd_proc_intensity_bkg_calc
      _pd_calc_intensity_total
   0.0       0.0        -10504891.00000   .
   0.0       0.0        -10137111.00000   .
   0.0       0.0        -9781181.00000    .
   0.0       0.0        -9436756.00000    .
   0.0       0.0        -9103494.00000    .
   0.0       0.0        -8781054.00000    .
   0.0       0.0        -8469127.00000    .
   0.0       0.0        -8167388.50000    .
   0.0       0.0        -7875536.50000    .
   0.0       0.0        -7593275.00000    .
   0.0       0.0        -7320313.00000    .
   0.0       0.0        -7056371.50000    .
   0.0       0.0        -6801175.00000    .
   0.0       0.0        -6554455.00000    .
   0.0       0.0        -6315960.00000    .
   0.0       0.0        -6085434.50000    .
   0.0       0.0        -5862634.50000    .
   0.0       0.0        -5647327.00000    .
   0.0       0.0        -5439276.50000    .
   0.0       0.0        -5238259.50000    .
   0.0       0.0        -5044058.50000    .
   0.0       0.0        -4856463.50000    .
   0.0       0.0        -4675270.00000    .
   0.0       0.0        -4500274.00000    .
   0.0       0.0        -4331285.50000    .
   0.0       0.0        -4168112.00000    .
   0.0       0.0        -4010575.00000    .
   0.0       0.0        -3858492.25000    .
   0.0       0.0        -3711692.50000    .
   0.0       0.0        -3570008.50000    .
   0.0       0.0        -3433280.50000    .
   0.0       0.0        -3301342.00000    .
   0.0       0.0        -3174046.00000    .
   0.0       0.0        -3051243.25000    .
   0.0       0.0        -2932786.00000    .
   0.0       0.0        -2818537.25000    .
   0.0       0.0        -2708356.75000    .
   0.0       0.0        -2602115.25000    .
   0.0       0.0        -2499682.50000    .
   0.0       0.0        -2400935.75000    .
   0.0       0.0        -2305752.25000    .
   0.0       0.0        -2214016.50000    .
   0.0       0.0        -2125613.25000    .
   0.0       0.0        -2040431.37500    .
   0.0       0.0        -1958366.62500    .
   0.0       0.0        -1879313.37500    .
   0.0       0.0        -1803171.50000    .
   0.0       0.0        -1729841.87500    .
   0.0       0.0        -1659232.62500    .
  26.0       0.0        -1591248.75000    .
  31.0       0.0        -1525805.25000    .
  36.0       0.0        -1462813.75000    .
  47.0       0.0        -1402189.87500    .
  61.0       0.0        -1343853.50000    .
  75.0       0.0        -1287725.75000    .
  88.0       0.0        -1233731.50000    .
  101.0      0.0        -1181796.37500    .
  113.0      0.0        -1131850.00000    .
  126.0      0.0        -1083822.25000    .
  137.0      0.0        -1037646.43750    .
  148.0      0.0        -993257.31250     .
  160.0      0.0        -950594.12500     .
  175.0      0.0        -909593.62500     .
  191.0      0.0        -870198.18750     .
  208.0      0.0        -832350.37500     .
  227.0      0.0        -795995.87500     .
  254.0      0.0        -761080.12500     .
  290.0      0.0        -727552.68750     .
  330.0      0.0        -695363.12500     .
  376.0      0.0        -664463.00000     .
  423.0      0.0        -634805.81250     .
  466.0      0.0        -606346.18750     .
  504.0      0.0        -579040.12500     .
  536.0      0.0        -552845.81250     .
  568.0      0.0        -527721.75000     .
  600.0      0.0        -503629.06250     .
  632.0      0.0        -480529.31250     .
  661.0      0.0        -458385.28125     .
  693.0      0.0        -437161.81250     .
  724.0      0.0        -416823.37500     .
  754.0      0.0        -397337.87500     .
  785.0      0.0        -378672.37500     .
  816.0      0.0        -360795.75000     .
  846.0      0.0        -343677.81250     .
  871.0      0.0        -327290.15625     .
  899.0      0.0        -311604.31250     .
  923.0      0.0        -296593.25000     .
  943.0      0.0        -282230.62500     .
  963.0      0.0        -268491.71875     .
  984.0      0.0        -255351.73438     .
  1008.0     0.0        -242787.35938     .
  1030.0     0.0        -230775.96875     .
  1050.0     0.0        -219295.67188     .
  1073.0     0.0        -208325.50000     .
  1099.0     0.0        -197844.68750     .
  1122.0     0.0        -187834.12500     .
  1141.0     0.0        -178274.70313     .
  1155.0     0.0        -169148.10938     .
  1165.0     0.0        -160436.76563     .
  1173.0     0.0        -152123.79688     .
  1178.0     0.0        -144193.01563     .
  1183.0     0.0        -136628.42188     .
  1188.0     0.0        -129415.03125     .
  1194.0     0.0        -122538.39844     .
  1200.0     0.0        -115984.18750     .
  1208.0     0.0        -109738.98438     .
  1219.0     0.0        -103789.92969     .
  1236.0     0.0        -98124.25781      .
  1268.0     0.0        -92729.98438      .
  1324.0     0.0        -87595.57813      .
  1412.0     0.0        -82709.77344      .
  1534.0     0.0        -78062.00000      .
  1692.0     0.0        -73641.76563      .
  1885.0     0.0        -69439.17969      .
  2090.0     0.0        -65444.72656      .
  2276.0     0.0        -61649.26563      .
  2420.0     0.0        -58043.83203      .
  2513.0     0.0        -54620.19531      .
  2557.0     0.0        -51370.05469      .
  2570.0     0.0        -48285.67188      .
  2562.0     0.0        -45359.48438      .
  2543.0     0.0        -42584.33203      .
  2525.0     0.0        -39953.30859      .
  2505.0     0.0        -37459.76563      .
  2482.0     0.0        -35097.33203      .
  2464.0     0.0        -32859.91016      .
  2448.0     0.0        -30741.69141      .
  2432.0     0.0        -28737.00977      .
  2414.0     0.0        -26840.50977      .
  2400.0     0.0        -25047.01563      .
  2383.0     0.0        -23351.61133      .
  2369.0     0.0        -21749.55078      .
  2355.0     0.0        -20236.34180      .
  2340.0     0.0        -18807.56445      .
  2326.0     0.0        -17459.17578      .
  2316.0     0.0        -16187.10156      .
  2308.0     0.0        -14987.62500      .
  2292.0     0.0        -13857.03223      .
  2274.0     0.0        -12791.89941      .
  2259.0     0.0        -11788.89453      .
  2249.0     0.0        -10844.82910      .
  2240.0     0.0        -9956.68359       .
  2235.0     0.0        -9121.52930       .
  2231.0     0.0        -8336.65137       .
  2226.0     0.0        -7599.35352       .
  2216.0     0.0        -6907.15186       .
  2205.0     0.0        -6257.63135       .
  2197.0     0.0        -5648.47949       .
  2189.0     0.0        -5077.54639       .
  2181.0     0.0        -4542.71826       .
  2177.0     0.0        -4042.01392       .
  2171.0     0.0        -3573.55078       .
  2163.0     0.0        -3135.52954       .
  2158.0     0.0        -2726.21899       .
  2155.0     0.0        -2344.00146       .
  2151.0     0.0        -1987.32935       .
  2144.0     0.0        -1654.72180       .
  2132.0     0.0        -1344.77930       .
  2121.0     0.0        -1056.16528       .
  2116.0     0.0        -787.62512        .
  2115.0     0.0        -537.94995        .
  2122.0     0.0        -306.00629        .
  2133.0     0.0        -90.71359         .
  2141.0     0.0         108.95684        .
  2151.0     0.0         293.96429        .
  2165.0     0.0         465.23911        .
  2179.0     0.0         623.64380        .
  2190.0     0.0         770.00574        .
  2196.0     0.0         905.09937        .
  2196.0     0.0         1029.66431       .
  2192.0     0.0         1144.39307       .
  2182.0     0.0         1249.93958       .
  2166.0     0.0         1346.92908       .
  2146.0     0.0         1435.94360       .
  2127.0     0.0         1517.53052       .
  2114.0     0.0         1592.21289       .
  2108.0     0.0         1660.47632       .
  2105.0     0.0         1722.78125       .
  2103.0     0.0         1779.55908       .
  2105.0     0.0         1831.21704       .
  2110.0     0.0         1878.13428       .
  2123.0     0.0         1920.66943       .
  2151.0     0.0         1959.15710       .
  2195.0     0.0         1993.91077       .
  2253.0     0.0         2025.22571       .
  2316.0     0.0         2053.37451       .
  2367.0     0.0         2078.61572       .
  2392.0     0.0         2101.18750       .
  2390.0     0.0         2121.31396       .
  2377.0     0.0         2139.20337       .
  2360.0     0.0         2155.04858       .
  2346.0     0.0         2169.03101       .
  2338.0     0.0         2181.31592       .
  2334.0     0.0         2192.05981       .
  2332.0     0.0         2201.40576       .
  2332.0     0.0         2209.48657       .
  2333.0     0.0         2216.42505       .
  2334.0     0.0         2222.33423       .
  2331.0     0.0         2227.31836       .
  2321.0     0.0         2231.47339       .
  2306.0     0.000434    2234.88721       2253.97827
  2289.0     0.000437    2237.64063       2257.84180
  2274.0     0.000440    2239.80664       2261.21997
  2266.0     0.000441    2241.45313       2264.19287
  2263.0     0.000442    2242.64111       2266.83667
  2262.0     0.000442    2243.42603       2269.22437
  2259.0     0.000443    2243.85864       2271.42700
  2258.0     0.000443    2243.98364       2273.51440
  2259.0     0.000443    2243.84277       2275.55591
  2260.0     0.000442    2243.47241       2277.62305
  2264.0     0.000442    2242.90552       2279.79053
  2269.0     0.000441    2242.17114       2282.13818
  2277.0     0.000439    2241.29541       2284.75366
  2288.0     0.000437    2240.30151       2287.73706
  2304.0     0.000434    2239.20898       2291.20410
  2319.0     0.000431    2238.03564       2295.57739
  2331.0     0.000429    2236.79639       2300.47437
  2344.0     0.000427    2235.50439       2306.38159
  2357.0     0.000424    2234.17041       2313.57935
  2372.0     0.000422    2232.80420       2322.43823
  2395.0     0.000418    2231.41284       2356.40625
  2422.0     0.000413    2230.00269       2370.97021
  2455.0     0.000407    2228.57837       2389.65552
  2492.0     0.000401    2227.14404       2414.72485
  2539.0     0.000394    2225.70190       2450.98462
  2596.0     0.000385    2224.25391       2508.15576
  2664.0     0.000375    2222.80078       2602.87646
  2748.0     0.000364    2221.34302       2757.85205
  2859.0     0.0003498   2219.88013       2993.70508
  3007.0     0.0003326   2218.41113       3320.63672
  3211.0     0.0003114   2216.93481       3756.18555
  3504.0     0.0002854   2215.44946       4296.57861
  3945.0     0.0002535   2213.95313       4963.63672
  4621.0     0.0002164   2212.44360       5771.16992
  5633.0     0.0001775   2210.91870       6733.65869
  7005.0     0.0001428   2209.37598       7800.80420
  8529.0     0.0001172   2207.81299       8801.71484
  9702.0     0.0001031   2206.22705       9359.46875
  9864.0     0.0001014   2204.61572       8982.94434
  8773.0     0.0001140   2202.97681       7509.49609
  6987.0     0.0001431   2201.30786       5662.42725
  5285.0     0.0001892   2199.60669       4216.78076
  4151.0     0.0002409   2197.87134       3348.73926
  3538.0     0.0002826   2196.09985       2907.78076
  3189.0     0.0003136   2194.29077       2695.52661
  2974.0     0.0003362   2192.44238       2583.56885
  2824.0     0.000354    2190.55371       2514.16797
  2716.0     0.000368    2188.62354       2465.86792
  2635.0     0.000380    2186.65112       2430.37109
  2570.0     0.000389    2184.63599       2403.65112
  2521.0     0.000397    2182.57764       2383.40503
  2478.0     0.000404    2180.47632       2368.45972
  2440.0     0.000410    2178.33228       2358.83813
  2413.0     0.000414    2176.14575       2355.85840
  2396.0     0.000417    2173.91772       2361.48926
  2385.0     0.000419    2171.64893       2376.94531
  2378.0     0.000421    2169.34058       2402.36157
  2377.0     0.000421    2166.99414       2438.13452
  2383.0     0.000420    2164.61157       2486.00684
  2402.0     0.000416    2162.19434       2548.95239
  2435.0     0.000411    2159.74487       2629.35034
  2471.0     0.000405    2157.26514       2721.68359
  2497.0     0.000400    2154.75806       2796.92847
  2495.0     0.000401    2152.22607       2798.47900
  2465.0     0.000406    2149.67188       2690.91260
  2426.0     0.000412    2147.09888       2536.87573
  2397.0     0.000417    2144.51001       2424.87207
  2387.0     0.000419    2141.90894       2374.48364
  2386.0     0.000419    2139.29858       2362.22974
  2390.0     0.000418    2136.68262       2365.37427
  2396.0     0.000417    2134.06519       2374.30981
  2403.0     0.000416    2131.44946       2386.66406
  2414.0     0.000414    2128.83960       2402.17725
  2428.0     0.000412    2126.23975       2427.93506
  2446.0     0.000409    2123.65332       2450.92822
  2472.0     0.000405    2121.08472       2478.49365
  2505.0     0.000399    2118.53784       2511.55420
  2543.0     0.000393    2116.01709       2551.34448
  2588.0     0.000386    2113.52588       2599.51782
  2645.0     0.000378    2111.06909       2658.32178
  2719.0     0.000368    2108.65039       2730.86938
  2817.0     0.000355    2106.27368       2821.64404
  2950.0     0.0003390   2103.94336       2937.63135
  3140.0     0.0003185   2101.66333       3091.30127
  3416.0     0.0002927   2099.43750       3307.79468
  3831.0     0.0002610   2097.26978       3638.23877
  4475.0     0.0002235   2095.16406       4176.13916
  5486.0     0.0001823   2093.12402       5067.06055
  7044.0     0.0001420   2091.15308       6493.72852
  9363.0     0.0001068   2089.25537       8608.61230
  12637.0    0.0000791   2087.43384       11546.60254
  16983.0    0.0000589   2085.69214       15486.93945
  22201.0    0.0000450   2084.03369       20374.18750
  28036.0    0.0000357   2082.46118       26140.08008
  33578.0    0.0000298   2080.97803       31965.30078
  36855.0    0.0000271   2079.58716       36289.97656
  35869.0    0.0000279   2078.29102       36742.70703
  30239.0    0.0000331   2077.09229       31734.13281
  21828.0    0.0000458   2075.99390       23204.05273
  14044.0    0.0000712   2074.99756       15230.43164
  8783.0     0.0001139   2074.10571       9741.67090
  5806.0     0.0001722   2073.32056       6609.43750
  4293.0     0.0002329   2072.64404       5004.47559
  3533.0     0.0002830   2072.07739       4179.74512
  3128.0     0.0003197   2071.62256       3705.26416
  2892.0     0.0003458   2071.28101       3392.07861
  2739.0     0.000365    2071.05371       3166.05811
  2631.0     0.000380    2070.94189       2995.37695
  2554.0     0.000392    2070.94653       2863.10498
  2496.0     0.000401    2071.06836       2758.66479
  2451.0     0.000408    2071.30762       2674.94019
  2421.0     0.000413    2071.66528       2606.97119
  2400.0     0.000417    2072.14136       2551.21729
  2384.0     0.000419    2072.73584       2500.72388
  2373.0     0.000421    2073.44873       2462.44019
  2368.0     0.000422    2074.28003       2430.43408
  2363.0     0.000423    2075.22900       2403.60718
  2357.0     0.000424    2076.29541       2381.11401
  2350.0     0.000426    2077.47827       2362.29907
  2345.0     0.000426    2078.77710       2346.74316
  2345.0     0.000426    2080.19043       2333.86523
  2347.0     0.000426    2081.71777       2323.44702
  2351.0     0.000425    2083.35718       2315.25293
  2358.0     0.000424    2085.10767       2309.10913
  2369.0     0.000422    2086.96753       2323.68188
  2382.0     0.000420    2088.93506       2322.16650
  2401.0     0.000416    2091.00830       2322.55103
  2421.0     0.000413    2093.18579       2324.87085
  2440.0     0.000410    2095.46484       2329.21851
  2463.0     0.000406    2097.84375       2335.75098
  2490.0     0.000402    2100.32007       2344.70605
  2522.0     0.000397    2102.89111       2356.42383
  2563.0     0.000390    2105.55469       2371.37988
  2612.0     0.000383    2108.30835       2390.23706
  2665.0     0.000375    2111.14893       2413.92993
  2728.0     0.000367    2114.07373       2443.81299
  2800.0     0.000357    2117.08008       2481.98413
  2883.0     0.0003469   2120.16479       2532.03516
  2977.0     0.0003359   2123.32495       2600.66895
  3091.0     0.0003235   2126.55737       2701.97290
  3232.0     0.0003094   2129.85889       2855.54834
  3417.0     0.0002927   2133.22632       3098.35327
  3658.0     0.0002734   2136.65601       3480.02246
  3983.0     0.0002511   2140.14526       4055.33252
  4419.0     0.0002263   2143.68994       4857.84277
  5025.0     0.0001990   2147.28687       5907.70020
  5908.0     0.0001693   2150.93286       7205.77588
  7156.0     0.0001397   2154.62402       8553.07129
  8633.0     0.0001158   2158.35669       9640.75879
  9896.0     0.0001011   2162.12769       10071.66895
  10341.0    0.0000967   2165.93311       9433.20020
  9584.0     0.0001043   2169.76929       7904.38965
  7952.0     0.0001258   2173.63281       6199.39648
  6215.0     0.0001609   2177.52002       4840.31396
  4904.0     0.0002039   2181.42725       3941.72168
  4098.0     0.0002440   2185.35083       3417.81372
  3635.0     0.0002751   2189.28711       3136.44189
  3358.0     0.0002978   2193.23242       2991.49731
  3180.0     0.0003145   2197.18335       2920.72217
  3064.0     0.0003264   2201.13599       2895.43945
  3002.0     0.0003331   2205.08716       2906.60938
  3004.0     0.0003329   2209.03320       2960.27075
  3111.0     0.0003214   2212.97070       3091.15112
  3413.0     0.0002930   2216.89600       3403.36328
  4081.0     0.0002450   2220.80566       4125.05078
  5414.0     0.0001847   2224.69653       5618.21826
  7863.0     0.0001272   2228.56519       8290.34180
  12061.0    0.0000829   2232.40820       12496.18262
  18580.0    0.0000538   2236.22266       18510.79297
  27019.0    0.0000370   2240.00513       26213.75195
  35062.0    0.0000285   2243.75244       34068.18750
  38667.0    0.0000259   2247.46167       38346.17188
  34502.0    0.0000290   2251.13013       35093.08594
  24381.0    0.0000410   2254.75439       25016.98242
  14209.0    0.0000704   2258.33203       14452.52832
  7721.0     0.0001295   2261.85986       7675.00000
  4772.0     0.0002096   2265.33545       4607.93115
  3599.0     0.0002779   2268.75610       3510.89185
  3092.0     0.0003234   2272.11938       3116.69019
  2841.0     0.000352    2275.42285       2926.96216
  2703.0     0.000370    2278.66406       2813.95068
  2620.0     0.000382    2281.84058       2729.50317
  2564.0     0.000390    2284.95020       2667.84790
  2523.0     0.000396    2287.99121       2622.09692
  2493.0     0.000401    2290.96094       2587.98071
  2476.0     0.000404    2293.85815       2562.81152
  2467.0     0.000405    2296.68066       2544.98145
  2464.0     0.000406    2299.42676       2533.73486
  2465.0     0.000406    2302.09473       2529.11548
  2472.0     0.000405    2304.68286       2532.12036
  2493.0     0.000401    2307.19019       2545.11621
  2534.0     0.000395    2309.61499       2572.44629
  2605.0     0.000384    2311.95630       2621.60254
  2717.0     0.000368    2314.21240       2704.66943
  2873.0     0.0003481   2316.38281       2834.89478
  3069.0     0.0003258   2318.46631       3019.82568
  3300.0     0.0003030   2320.46191       3262.07300
  3550.0     0.0002817   2322.36914       3553.38184
  3786.0     0.0002641   2324.18701       3832.31763
  3935.0     0.0002541   2325.91504       4006.24268
  3883.0     0.0002575   2327.55298       3949.49585
  3593.0     0.0002783   2329.10010       3641.42969
  3183.0     0.0003142   2330.55640       3240.47974
  2821.0     0.000354    2331.92163       2908.76855
  2590.0     0.000386    2333.19580       2695.09277
  2472.0     0.000405    2334.37866       2580.02124
  2414.0     0.000414    2335.47046       2521.84766
  2382.0     0.000420    2336.47144       2492.17407
  2361.0     0.000424    2337.38184       2475.48901
  2345.0     0.000426    2338.20190       2465.63062
  2332.0     0.000429    2338.93237       2460.59326
  2326.0     0.000430    2339.57373       2459.78760
  2331.0     0.000429    2340.12646       2462.85840
  2348.0     0.000426    2340.59131       2468.79346
  2370.0     0.000422    2340.96948       2474.97046
  2386.0     0.000419    2341.26147       2477.22559
  2386.0     0.000419    2341.46826       2472.48047
  2374.0     0.000421    2341.59106       2463.13525
  2357.0     0.000424    2341.63135       2455.22949
  2347.0     0.000426    2341.58960       2451.83789
  2342.0     0.000427    2341.46777       2452.68384
  2342.0     0.000427    2341.26685       2456.42261
  2345.0     0.000426    2340.98853       2462.15479
  2352.0     0.000425    2340.63428       2469.66382
  2364.0     0.000423    2340.20532       2479.14990
  2384.0     0.000419    2339.70386       2484.40210
  2410.0     0.000415    2339.13135       2499.52271
  2442.0     0.000410    2338.48950       2518.61328
  2480.0     0.000403    2337.78027       2543.03857
  2530.0     0.000395    2337.00562       2574.98828
  2591.0     0.000386    2336.16724       2618.47803
  2674.0     0.000374    2335.26709       2681.84497
  2792.0     0.000358    2334.30786       2782.78320
  2968.0     0.0003369   2333.29077       2956.02905
  3238.0     0.0003088   2332.21875       3264.44678
  3647.0     0.0002742   2331.09351       3788.31982
  4277.0     0.0002338   2329.91724       4620.38281
  5230.0     0.0001912   2328.69263       5797.29004
  6558.0     0.0001525   2327.42163       7255.56543
  8101.0     0.0001234   2326.10693       8696.55957
  9388.0     0.0001065   2324.75049       9604.82813
  9773.0     0.0001023   2323.35522       9434.61719
  8885.0     0.0001125   2321.92310       8096.97510
  7145.0     0.0001400   2320.45679       6307.75293
  5398.0     0.0001853   2318.95874       4791.45264
  4164.0     0.0002402   2317.43164       3783.98340
  3466.0     0.0002885   2315.87793       3214.15601
  3098.0     0.0003228   2314.30005       2919.64087
  2894.0     0.0003455   2312.70068       2765.72754
  2773.0     0.000361    2311.08252       2676.18628
  2696.0     0.000371    2309.44775       2617.07031
  2641.0     0.000379    2307.79932       2574.74805
  2593.0     0.000386    2306.13989       2543.32910
  2546.0     0.000393    2304.47168       2519.72729
  2502.0     0.000400    2302.79761       2502.05957
  2467.0     0.000405    2301.12036       2489.10913
  2442.0     0.000410    2299.44238       2480.09155
  2426.0     0.000412    2297.76636       2474.52954
  2417.0     0.000414    2296.09473       2472.19067
  2415.0     0.000414    2294.43018       2473.05249
  2417.0     0.000414    2292.77515       2477.30566
  2425.0     0.000412    2291.13257       2485.39209
  2437.0     0.000410    2289.50464       2498.11475
  2462.0     0.000406    2287.89404       2516.91040
  2505.0     0.000399    2286.30322       2544.47046
  2571.0     0.000389    2284.73486       2585.97070
  2675.0     0.000374    2283.19116       2650.98706
  2832.0     0.000353    2281.67480       2755.57300
  3058.0     0.0003270   2280.18774       2923.10327
  3372.0     0.0002966   2278.73315       3181.68872
  3797.0     0.0002634   2277.31274       3553.83447
  4358.0     0.0002295   2275.92920       4024.74341
  5007.0     0.0001997   2274.58447       4535.73145
  5613.0     0.0001782   2273.28125       5000.12891
  5962.0     0.0001677   2272.02148       5343.18799
  5872.0     0.0001703   2270.80737       5399.33447
  5343.0     0.0001872   2269.64111       5114.81592
  4617.0     0.0002166   2268.52515       4712.84180
  4008.0     0.0002495   2267.46094       4398.75244
  3708.0     0.0002697   2266.45093       4198.32275
  3697.0     0.0002705   2265.49707       4082.36572
  3816.0     0.0002621   2264.60107       3954.77588
  3891.0     0.0002570   2263.76514       3718.08521
  3796.0     0.0002634   2262.99097       3405.92163
  3528.0     0.0002834   2262.28027       3111.41455
  3201.0     0.0003124   2261.63501       2881.07471
  2928.0     0.0003415   2261.05664       2721.89331
  2746.0     0.000364    2260.54712       2617.16211
  2638.0     0.000379    2260.10767       2551.69312
  2571.0     0.000389    2259.74023       2510.74902
  2528.0     0.000396    2259.44604       2484.44336
  2500.0     0.000400    2259.22632       2467.18481
  2484.0     0.000403    2259.08301       2456.13110
  2475.0     0.000404    2259.01709       2449.91040
  2473.0     0.000404    2259.02979       2447.89722
  2478.0     0.000404    2259.12231       2449.90698
  2491.0     0.000401    2259.29590       2456.10059
  2513.0     0.000398    2259.55176       2467.03247
  2543.0     0.000393    2259.89063       2483.86108
  2586.0     0.000387    2260.31396       2508.87598
  2643.0     0.000378    2260.82202       2546.54224
  2715.0     0.000368    2261.41626       2598.27441
  2804.0     0.000357    2262.09692       2692.23999
  2915.0     0.0003431   2262.86523       2842.26636
  3056.0     0.0003272   2263.72168       3074.23120
  3245.0     0.0003082   2264.66675       3410.31909
  3515.0     0.0002845   2265.70117       3846.86768
  3905.0     0.0002561   2266.82544       4324.37891
  4415.0     0.0002265   2268.03979       4747.56689
  4936.0     0.0002026   2269.34497       5021.67285
  5225.0     0.0001914   2270.74072       4998.13379
  5105.0     0.0001959   2272.22778       4624.35840
  4598.0     0.0002175   2273.80615       4092.18994
  3957.0     0.0002527   2275.47607       3603.77246
  3452.0     0.0002897   2277.23730       3240.61426
  3150.0     0.0003175   2279.09033       3010.36816
  3015.0     0.0003317   2281.03467       2892.84180
  3009.0     0.0003323   2283.07056       2866.79346
  3141.0     0.0003184   2285.19751       2943.21729
  3451.0     0.0002898   2287.41553       3175.46362
  4011.0     0.0002493   2289.72412       3668.64697
  4930.0     0.0002028   2292.12305       4550.09961
  6258.0     0.0001598   2294.61230       5868.47217
  7800.0     0.0001282   2297.19067       7461.33008
  9017.0     0.0001109   2299.85840       8826.20605
  9231.0     0.0001083   2302.61426       9256.68457
  8167.0     0.0001224   2305.45825       8333.17188
  6349.0     0.0001575   2308.38916       6569.92383
  4633.0     0.0002158   2311.40674       4884.25098
  3502.0     0.0002856   2314.50977       3732.91479
  2930.0     0.0003413   2317.69775       3105.84644
  2678.0     0.000373    2320.96973       2811.71411
  2566.0     0.000390    2324.32446       2677.28955
  2511.0     0.000398    2327.76147       2607.73584
  2482.0     0.000403    2331.27954       2564.81689
  2468.0     0.000405    2334.87769       2535.21973
  2459.0     0.000407    2338.55444       2513.88257
  2452.0     0.000408    2342.30908       2498.29077
  2449.0     0.000408    2346.14014       2486.90088
  2448.0     0.000408    2350.04639       2478.67896
  2447.0     0.000409    2354.02661       2473.41431
  2446.0     0.000409    2358.07935       2469.60059
  2445.0     0.000409    2362.20337       2467.35205
  2443.0     0.000409    2366.39722       2466.39551
  2441.0     0.000410    2370.65942       2466.52539
  2444.0     0.000409    2374.98853       2467.84668
  2448.0     0.000408    2379.38330       2469.73438
  2453.0     0.000408    2383.84131       2472.35278
  2462.0     0.000406    2388.36182       2475.63672
  2475.0     0.000404    2392.94312       2479.54102
  2481.0     0.000403    2397.58276       2481.00000
  2483.0     0.000403    2402.28027       2486.14771
  2484.0     0.000403    2407.03320       2491.86401
  2485.0     0.000402    2411.83936       2498.15747
  2488.0     0.000402    2416.69800       2505.05078
  2493.0     0.000401    2421.60669       2514.97729
  2501.0     0.000400    2426.56396       2521.82153
  2510.0     0.000398    2431.56763       2530.90308
  2517.0     0.000397    2436.61597       2540.84058
  2523.0     0.000396    2441.70703       2551.75928
  2528.0     0.000396    2446.83936       2563.82056
  2533.0     0.000395    2452.01001       2577.23682
  2539.0     0.000394    2457.21802       2592.29077
  2547.0     0.000393    2462.46118       2609.35547
  2558.0     0.000391    2467.73706       2628.94458
  2569.0     0.000389    2473.04443       2651.78979
  2584.0     0.000387    2478.38037       2679.01733
  2606.0     0.000384    2483.74390       2712.54321
  2634.0     0.000380    2489.13232       2755.90527
  2674.0     0.000374    2494.54321       2815.74902
  2736.0     0.000365    2499.97583       2903.82690
  2832.0     0.000353    2505.42700       3038.43701
  2981.0     0.0003355   2510.89478       3242.89063
  3206.0     0.0003119   2516.37793       3537.78735
  3524.0     0.0002838   2521.87354       3927.35498
  3943.0     0.0002536   2527.37964       4383.27783
  4437.0     0.0002254   2532.89453       4818.09717
  4947.0     0.0002021   2538.41602       5077.62598
  5360.0     0.0001866   2543.94165       5024.89600
  5557.0     0.0001800   2549.47021       4699.13330
  5454.0     0.0001834   2554.99854       4281.73438
  5068.0     0.0001973   2560.52563       3918.61401
  4561.0     0.0002193   2566.04907       3674.24268
  4152.0     0.0002408   2571.56616       3565.62134
  3940.0     0.0002538   2577.07593       3593.48340
  3915.0     0.0002554   2582.57593       3733.61328
  4007.0     0.0002496   2588.06348       3963.88818
  4148.0     0.0002411   2593.53760       4225.98633
  4291.0     0.0002330   2598.99609       4484.62402
  4424.0     0.0002260   2604.43604       4743.88330
  4563.0     0.0002192   2609.85669       4993.98730
  4717.0     0.0002120   2615.25537       5171.52490
  4857.0     0.0002059   2620.63062       5168.32520
  4916.0     0.0002034   2625.98022       4934.93896
  4835.0     0.0002068   2631.30200       4602.36914
  4660.0     0.0002146   2636.59473       4342.46973
  4532.0     0.0002207   2641.85596       4255.75342
  4602.0     0.0002173   2647.08398       4391.04590
  4959.0     0.0002017   2652.27734       4769.25293
  5604.0     0.0001784   2657.43408       5377.11816
  6447.0     0.0001551   2662.55176       6134.01318
  7290.0     0.0001372   2667.62964       6876.86523
  7828.0     0.0001277   2672.66553       7407.52930
  7780.0     0.0001285   2677.65723       7512.79248
  7107.0     0.0001407   2682.60400       7125.87109
  6085.0     0.0001643   2687.50342       6473.55518
  5115.0     0.0001955   2692.35449       5785.06445
  4457.0     0.0002244   2697.15503       5138.70654
  4091.0     0.0002444   2701.90356       4568.60498
  3863.0     0.0002589   2706.59912       4110.19287
  3659.0     0.0002733   2711.23950       3774.54761
  3458.0     0.0002892   2715.82324       3544.99268
  3287.0     0.0003042   2720.34961       3397.01538
  3170.0     0.0003155   2724.81641       3310.88721
  3103.0     0.0003223   2729.22217       3274.11255
  3075.0     0.0003252   2733.56641       3279.42432
  3075.0     0.0003252   2737.84668       3321.20361
  3099.0     0.0003227   2742.06274       3390.32617
  3146.0     0.0003179   2746.21289       3465.91064
  3219.0     0.0003107   2750.29541       3510.93237
  3308.0     0.0003023   2754.31006       3492.25830
  3391.0     0.0002949   2758.25488       3426.50317
  3444.0     0.0002904   2762.12891       3358.48511
  3451.0     0.0002898   2765.93140       3320.08252
  3429.0     0.0002916   2769.66113       3333.13306
  3414.0     0.0002929   2773.31665       3413.28467
  3448.0     0.0002900   2776.89771       3570.10229
  3552.0     0.0002815   2780.40283       3803.16309
  3736.0     0.0002677   2783.83105       4084.24902
  3988.0     0.0002508   2787.18188       4348.44531
  4237.0     0.0002360   2790.45410       4514.62305
  4377.0     0.0002285   2793.64746       4495.62744
  4309.0     0.0002321   2796.76050       4277.75879
  4033.0     0.0002480   2799.79297       3964.36060
  3689.0     0.0002711   2802.74390       3666.62183
  3416.0     0.0002927   2805.61279       3434.06812
  3259.0     0.0003068   2808.39893       3273.48413
  3181.0     0.0003144   2811.10181       3173.22021
  3147.0     0.0003178   2813.72095       3116.93359
  3135.0     0.0003190   2816.25562       3091.48657
  3140.0     0.0003185   2818.70557       3088.08008
  3159.0     0.0003166   2821.07007       3104.29834
  3190.0     0.0003135   2823.34912       3140.25024
  3235.0     0.0003091   2825.54199       3196.40186
  3300.0     0.0003030   2827.64868       3269.15894
  3393.0     0.0002947   2829.66870       3346.64136
  3515.0     0.0002845   2831.60181       3402.59595
  3651.0     0.0002739   2833.44775       3408.59741
  3764.0     0.0002657   2835.20654       3366.26074
  3806.0     0.0002627   2836.87793       3307.78198
  3753.0     0.0002665   2838.46167       3264.89502
  3643.0     0.0002745   2839.95801       3257.36328
  3553.0     0.0002815   2841.36670       3296.79297
  3545.0     0.0002821   2842.68750       3388.05078
  3638.0     0.0002749   2843.92090       3525.32910
  3793.0     0.0002636   2845.06665       3681.97217
  3938.0     0.0002539   2846.12524       3796.54004
  3998.0     0.0002501   2847.09644       3795.08960
  3917.0     0.0002553   2847.98022       3674.09351
  3702.0     0.0002701   2848.77759       3503.93823
  3431.0     0.0002915   2849.48779       3345.47974
  3202.0     0.0003123   2850.11182       3224.51367
  3062.0     0.0003266   2850.64990       3146.88794
  3005.0     0.0003328   2851.10181       3112.15918
  3010.0     0.0003322   2851.46851       3122.11328
  3065.0     0.0003263   2851.75024       3183.82568
  3169.0     0.0003156   2851.94727       3303.55908
  3317.0     0.0003015   2852.06006       3470.08447
  3471.0     0.0002881   2852.08936       3639.52222
  3563.0     0.0002807   2852.03540       3736.77979
  3536.0     0.0002828   2851.89893       3694.58960
  3393.0     0.0002947   2851.68018       3526.41748
  3202.0     0.0003123   2851.38013       3328.13354
  3051.0     0.0003278   2850.99927       3167.07129
  2967.0     0.0003370   2850.53809       3062.94360
  2934.0     0.0003408   2849.99731       3006.34033
  2926.0     0.0003418   2849.37793       2979.66333
  2934.0     0.0003408   2848.68042       2969.46045
  2954.0     0.0003385   2847.90552       2969.67505
  2986.0     0.0003349   2847.05396       2980.27466
  3037.0     0.0003293   2846.12671       3006.07983
  3123.0     0.0003202   2845.12427       3050.78320
  3257.0     0.0003070   2844.04785       3118.68530
  3438.0     0.0002909   2842.89819       3204.46924
  3642.0     0.0002746   2841.67627       3288.16577
  3803.0     0.0002630   2840.38257       3340.70483
  3837.0     0.0002606   2839.01855       3333.64746
  3718.0     0.0002690   2837.58472       3264.15991
  3505.0     0.0002853   2836.08203       3170.19678
  3289.0     0.0003040   2834.51196       3087.40869
  3135.0     0.0003190   2832.87500       3029.82593
  3050.0     0.0003279   2831.17236       2997.93896
  3011.0     0.0003321   2829.40503       2986.72607
  3000.0     0.0003333   2827.57397       2990.60693
  3002.0     0.0003331   2825.68042       3005.50659
  3011.0     0.0003321   2823.72510       3032.80640
  3024.0     0.0003307   2821.70947       3059.99683
  3037.0     0.0003293   2819.63452       3084.70801
  3051.0     0.0003278   2817.50122       3095.87354
  3060.0     0.0003268   2815.31055       3090.20801
  3059.0     0.0003269   2813.06421       3069.31152
  3047.0     0.0003282   2810.76245       3053.93945
  3027.0     0.0003304   2808.40723       3046.27295
  3011.0     0.0003321   2805.99951       3050.93945
  3008.0     0.0003324   2803.54004       3071.95044
  3019.0     0.0003312   2801.03052       3113.91162
  3047.0     0.0003282   2798.47168       3182.06689
  3094.0     0.0003232   2795.86475       3281.16748
  3166.0     0.0003159   2793.21143       3412.89844
  3270.0     0.0003058   2790.51221       3570.81274
  3410.0     0.0002933   2787.76855       3731.28491
  3579.0     0.0002794   2784.98193       3845.28687
  3744.0     0.0002671   2782.15308       3862.38184
  3849.0     0.0002598   2779.28345       3792.04004
  3846.0     0.0002600   2776.37427       3688.64404
  3741.0     0.0002673   2773.42676       3607.41797
  3595.0     0.0002782   2770.44214       3580.11816
  3492.0     0.0002864   2767.42114       3622.25024
  3470.0     0.0002882   2764.36548       3736.78589
  3533.0     0.0002830   2761.27637       3925.12036
  3690.0     0.0002710   2758.15479       4150.07178
  3950.0     0.0002532   2755.00171       4363.03027
  4309.0     0.0002321   2751.81909       4476.92529
  4697.0     0.0002129   2748.60718       4438.49414
  4976.0     0.0002010   2745.36768       4254.90869
  4994.0     0.0002002   2742.10205       4024.38306
  4719.0     0.0002119   2738.81079       3819.35596
  4292.0     0.0002330   2735.49536       3675.04028
  3892.0     0.0002569   2732.15698       3600.73926
  3618.0     0.0002764   2728.79688       3588.68530
  3480.0     0.0002874   2725.41602       3613.83032
  3432.0     0.0002914   2722.01563       3633.11182
  3427.0     0.0002918   2718.59668       3610.08716
  3431.0     0.0002915   2715.16064       3551.72974
  3433.0     0.0002913   2711.70825       3489.98706
  3457.0     0.0002893   2708.24072       3446.77539
  3544.0     0.0002822   2704.75928       3441.96997
  3743.0     0.0002672   2701.26489       3522.51807
  4116.0     0.0002430   2697.75830       3772.63110
  4725.0     0.0002116   2694.24146       4287.00879
  5556.0     0.0001800   2690.71436       5100.74365
  6440.0     0.0001553   2687.17896       6071.00977
  7055.0     0.0001417   2683.63550       6838.98584
  7061.0     0.0001416   2680.08521       6955.28857
  6374.0     0.0001569   2676.52930       6289.35693
  5304.0     0.0001885   2672.96875       5248.93018
  4298.0     0.0002327   2669.40405       4298.87451
  3622.0     0.0002761   2665.83691       3648.90845
  3273.0     0.0003055   2662.26758       3288.09302
  3122.0     0.0003203   2658.69702       3118.87671
  3060.0     0.0003268   2655.12671       3051.60645
  3042.0     0.0003287   2651.55664       3038.29810
  3051.0     0.0003278   2647.98853       3064.74414
  3088.0     0.0003238   2644.42285       3133.74023
  3158.0     0.0003167   2640.86035       3250.47241
  3256.0     0.0003071   2637.30200       3408.79517
  3367.0     0.0002970   2633.74854       3580.41650
  3457.0     0.0002893   2630.20044       3721.87134
  3493.0     0.0002863   2626.65894       3795.44019
  3472.0     0.0002880   2623.12451       3809.80591
  3441.0     0.0002906   2619.59790       3816.64575
  3464.0     0.0002887   2616.08008       3833.82178
  3583.0     0.0002791   2612.57129       3824.97021
  3778.0     0.0002647   2609.07227       3747.76147
  3970.0     0.0002519   2605.58423       3610.98462
  4064.0     0.0002461   2602.10693       3458.51196
  3999.0     0.0002501   2598.64160       3323.81494
  3804.0     0.0002629   2595.18823       3220.96069
  3572.0     0.0002800   2591.74805       3153.81226
  3386.0     0.0002953   2588.32129       3121.62817
  3282.0     0.0003047   2584.90820       3122.85229
  3263.0     0.0003065   2581.50977       3159.99902
  3318.0     0.0003014   2578.12646       3246.39600
  3454.0     0.0002895   2574.75830       3415.91455
  3697.0     0.0002705   2571.40576       3725.90234
  4104.0     0.0002437   2568.06982       4258.15430
  4730.0     0.0002114   2564.75024       5083.79199
  5611.0     0.0001782   2561.44751       6196.45850
  6692.0     0.0001494   2558.16235       7416.67676
  7719.0     0.0001296   2554.89478       8366.11719
  8268.0     0.0001209   2551.64526       8614.03906
  8007.0     0.0001249   2548.41406       7971.33740
  7022.0     0.0001424   2545.20117       6805.59912
  5781.0     0.0001730   2542.00732       5652.67627
  4767.0     0.0002098   2538.83203       4783.11670
  4174.0     0.0002396   2535.67627       4256.63818
  3922.0     0.0002550   2532.54004       4017.66870
  3880.0     0.0002577   2529.42310       3977.19800
  3967.0     0.0002521   2526.32568       4057.16675
  4148.0     0.0002411   2523.24854       4202.70459
  4410.0     0.0002268   2520.19092       4370.48682
  4739.0     0.0002110   2517.15356       4542.25830
  5118.0     0.0001954   2514.13599       4747.37402
  5558.0     0.0001799   2511.13867       5079.15625
  6095.0     0.0001641   2508.16138       5656.53906
  6859.0     0.0001458   2505.20410       6574.52197
  7992.0     0.0001251   2502.26685       7854.96533
  9461.0     0.0001057   2499.34985       9378.46094
  10924.0    0.0000915   2496.45288       10767.88965
  11824.0    0.0000846   2493.57544       11379.53516
  11648.0    0.0000859   2490.71826       10812.47168
  10276.0    0.0000973   2487.88037       9419.59668
  8165.0     0.0001225   2485.06201       7833.80908
  6119.0     0.0001634   2482.26343       6433.04053
  4709.0     0.0002124   2479.48364       5342.49512
  3921.0     0.0002550   2476.72314       4566.51660
  3515.0     0.0002845   2473.98120       4049.21094
  3294.0     0.0003036   2471.25781       3718.35059
  3176.0     0.0003149   2468.55298       3510.17944
  3130.0     0.0003195   2465.86597       3380.37158
  3137.0     0.0003188   2463.19678       3303.29272
  3181.0     0.0003144   2460.54541       3267.36353
  3251.0     0.0003076   2457.91089       3271.72705
  3337.0     0.0002997   2455.29321       3325.56665
  3448.0     0.0002900   2452.69214       3446.27271
  3603.0     0.0002775   2450.10718       3665.52734
  3838.0     0.0002606   2447.53809       4008.67236
  4191.0     0.0002386   2444.98413       4488.94727
  4698.0     0.0002129   2442.44531       5081.90381
  5353.0     0.0001868   2439.92090       5685.82031
  6059.0     0.0001650   2437.41064       6088.28857
  6590.0     0.0001517   2434.91406       6077.21582
  6691.0     0.0001495   2432.43091       5688.80518
  6298.0     0.0001588   2429.96021       5166.89355
  5615.0     0.0001781   2427.50171       4715.77979
  4983.0     0.0002007   2425.05518       4433.69629
  4641.0     0.0002155   2422.61987       4345.42676
  4625.0     0.0002162   2420.19507       4426.87109
  4829.0     0.0002071   2417.78052       4615.80273
  5086.0     0.0001966   2415.37549       4819.65918
  5204.0     0.0001922   2412.97998       4916.35303
  5040.0     0.0001984   2410.59253       4787.99023
  4601.0     0.0002173   2408.21313       4415.97021
  4044.0     0.0002473   2405.84106       3942.58618
  3550.0     0.0002817   2403.47583       3517.77905
  3213.0     0.0003112   2401.11646       3206.31274
  3014.0     0.0003318   2398.76294       3011.27441
  2895.0     0.0003454   2396.41406       2907.58936
  2819.0     0.000355    2394.06982       2866.47339
  2772.0     0.000361    2391.72900       2866.45459
  2750.0     0.000364    2389.39136       2891.82764
  2748.0     0.000364    2387.05591       2926.32813
  2758.0     0.000363    2384.72217       2951.70898
  2768.0     0.000361    2382.38940       2951.48267
  2765.0     0.000362    2380.05737       2918.60474
  2743.0     0.000365    2377.72461       2866.72974
  2711.0     0.000369    2375.39087       2816.07227
  2686.0     0.000372    2373.05591       2774.94751
  2676.0     0.000374    2370.71826       2740.46875
  2680.0     0.000373    2368.37769       2707.01538
  2684.0     0.000373    2366.03369       2673.13867
  2676.0     0.000374    2363.68481       2641.54248
  2647.0     0.000378    2361.33105       2617.08105
  2602.0     0.000384    2358.97168       2597.19507
  2556.0     0.000391    2356.60547       2583.52905
  2521.0     0.000397    2354.23242       2578.65088
  2499.0     0.000400    2351.85132       2582.56812
  2491.0     0.000401    2349.46167       2598.50513
  2498.0     0.000400    2347.06274       2626.64673
  2524.0     0.000396    2344.65381       2671.99927
  2580.0     0.000388    2342.23413       2738.25317
  2673.0     0.000374    2339.80322       2827.63477
  2812.0     0.000356    2337.35986       2938.28076
  2993.0     0.0003341   2334.90405       3059.32471
  3198.0     0.0003127   2332.43481       3164.17871
  3380.0     0.0002959   2329.95117       3213.91895
  3475.0     0.0002878   2327.45288       3182.69775
  3429.0     0.0002916   2324.93896       3088.90601
  3250.0     0.0003077   2322.40894       2972.67920
  3013.0     0.0003319   2319.86206       2864.50513
  2808.0     0.000356    2317.29736       2778.68799
  2684.0     0.000373    2314.71460       2719.37036
  2636.0     0.000379    2312.11304       2687.29395
  2638.0     0.000379    2309.49194       2683.00830
  2673.0     0.000374    2306.85034       2709.55176
  2744.0     0.000364    2304.18848       2774.05103
  2866.0     0.0003489   2301.50464       2886.28296
  3054.0     0.0003274   2298.79883       3056.84033
  3320.0     0.0003012   2296.07056       3290.21094
  3650.0     0.0002740   2293.31860       3574.97583
  3991.0     0.0002506   2290.54297       3866.93530
  4252.0     0.0002352   2287.74268       4074.90625
  4322.0     0.0002314   2284.91699       4106.00195
  4143.0     0.0002414   2282.06616       3963.19604
  3772.0     0.0002651   2279.18848       3738.27734
  3352.0     0.0002983   2276.28418       3509.04712
  3010.0     0.0003322   2273.35254       3311.58130
  2789.0     0.000359    2270.39282       3159.58521
  2666.0     0.000375    2267.40454       3054.23462
  2605.0     0.000384    2264.38745       2990.06128
  2592.0     0.000386    2261.34058       2961.81812
  2623.0     0.000381    2258.26392       2961.74219
  2695.0     0.000371    2255.15649       2974.57007
  2800.0     0.000357    2252.01807       2976.93433
  2914.0     0.0003432   2248.84814       2946.92847
  2989.0     0.0003346   2245.64624       2880.05322
  2980.0     0.0003356   2242.41211       2791.02100
  2874.0     0.0003479   2239.14502       2698.67944
  2715.0     0.000368    2235.84473       2615.02881
  2560.0     0.000391    2232.51074       2544.80298
  2443.0     0.000409    2229.14282       2488.91968
  2366.0     0.000423    2225.74023       2443.96631
  2319.0     0.000431    2222.30298       2411.15552
  2289.0     0.000437    2218.83057       2386.81079
  2269.0     0.000441    2215.32251       2368.84937
  2255.0     0.000443    2211.77881       2355.32129
  2249.0     0.000445    2208.19873       2344.25439
  2251.0     0.000444    2204.58228       2333.68848
  2257.0     0.000443    2200.92920       2322.36646
  2265.0     0.000442    2197.23901       2310.37842
  2269.0     0.000441    2193.51147       2299.44946
  2263.0     0.000442    2189.74658       2288.57324
  2249.0     0.000445    2185.94385       2278.88330
  2231.0     0.000448    2182.10278       2270.40186
  2215.0     0.000451    2178.22412       2263.03296
  2203.0     0.000454    2174.30688       2256.64771
  2194.0     0.000456    2170.35132       2251.12988
  2189.0     0.000457    2166.35669       2246.40527
  2188.0     0.000457    2162.32349       2242.45801
  2190.0     0.000457    2158.25146       2239.50415
  2195.0     0.000456    2154.14014       2237.24170
  2205.0     0.000454    2149.98975       2235.93701
  2221.0     0.000450    2145.80029       2236.33813
  2247.0     0.000445    2141.57129       2236.79614
  2291.0     0.000436    2137.30322       2238.06494
  2360.0     0.000424    2132.99585       2239.24194
  2457.0     0.000407    2128.64893       2239.37842
  2574.0     0.000389    2124.26270       2238.03809
  2681.0     0.000373    2119.83740       2235.88232
  2733.0     0.000366    2115.37231       2234.24585
  2702.0     0.000370    2110.86865       2234.47241
  2603.0     0.000384    2106.32520       2237.95825
  2487.0     0.000402    2101.74268       2246.77271
  2403.0     0.000416    2097.12158       2264.54297
  2368.0     0.000422    2092.46143       2297.25586
  2381.0     0.000420    2087.76221       2353.51318
  2443.0     0.000409    2083.02490       2441.41089
  2557.0     0.000391    2078.24878       2565.46851
  2726.0     0.000367    2073.43433       2717.51172
  2933.0     0.0003409   2068.58228       2873.26172
  3125.0     0.0003200   2063.69189       2974.23242
  3228.0     0.0003098   2058.76416       2965.70923
  3195.0     0.0003130   2053.79883       2861.36377
  3049.0     0.0003280   2048.79639       2726.15747
  2868.0     0.0003487   2043.75720       2607.75244
  2729.0     0.000366    2038.68115       2531.87573
  2663.0     0.000376    2033.56885       2492.30249
  2650.0     0.000377    2028.42090       2471.08252
  2654.0     0.000377    2023.23694       2447.79126
  2655.0     0.000377    2018.01782       2415.06763
  2654.0     0.000377    2012.76392       2382.77197
  2662.0     0.000376    2007.47522       2366.47095
  2686.0     0.000372    2002.15222       2366.28564
  2726.0     0.000367    1996.79590       2388.61768
  2780.0     0.000360    1991.40588       2435.48022
  2851.0     0.000351    1985.98328       2509.84644
  2932.0     0.0003411   1980.52783       2616.37036
  3013.0     0.0003319   1975.04028       2760.65503
  3089.0     0.0003237   1969.52161       2947.38452
  3162.0     0.0003163   1963.97156       3174.78418
  3237.0     0.0003089   1958.39087       3439.45068
  3328.0     0.0003005   1952.78052       3712.38501
  3456.0     0.0002894   1947.14026       3943.33691
  3634.0     0.0002752   1941.47107       4078.21606
  3844.0     0.0002601   1935.77380       4102.26855
  4030.0     0.0002481   1930.04834       4052.85181
  4131.0     0.0002421   1924.29578       3976.89478
  4143.0     0.0002414   1918.51624       3889.71729
  4107.0     0.0002435   1912.71057       3775.76611
  4045.0     0.0002472   1906.87988       3622.05103
  3925.0     0.0002548   1901.02380       3445.10376
  3698.0     0.0002704   1895.14355       3279.53735
  3395.0     0.0002946   1889.23999       3150.64307
  3105.0     0.0003221   1883.31323       3061.42871
  2906.0     0.0003441   1877.36401       2991.99414
  2790.0     0.000358    1871.39368       2909.81445
  2694.0     0.000371    1865.40198       2798.09692
  2571.0     0.000389    1859.39014       2671.45996
  2423.0     0.000413    1853.35901       2553.81616
  2283.0     0.000438    1847.30872       2457.83911
  2182.0     0.000458    1841.24084       2384.56323
  2130.0     0.000469    1835.15503       2329.62354
  2109.0     0.000474    1829.05273       2288.63110
  2099.0     0.000476    1822.93494       2258.93457
  2083.0     0.000480    1816.80151       2237.16431
  2054.0     0.000487    1810.65369       2218.10962
  2018.0     0.000496    1804.49292       2195.73364
  1985.0     0.000504    1798.31873       2167.59204
  1959.0     0.000510    1792.13257       2136.69214
  1943.0     0.000515    1785.93567       2108.30542
  1941.0     0.000515    1779.72778       2085.92725
  1951.0     0.000513    1773.51074       2071.43530
  1968.0     0.000508    1767.28442       2058.63477
  1979.0     0.000505    1761.05017       2044.28455
  1974.0     0.000507    1754.80908       2028.21021
  1950.0     0.000513    1748.56128       2013.39441
  1918.0     0.000521    1742.30786       2002.16187
  1895.0     0.000528    1736.05017       1994.20508
  1889.0     0.000529    1729.78821       1987.36121
  1896.0     0.000527    1723.52319       1979.61548
  1907.0     0.000524    1717.25647       1971.26501
  1913.0     0.000523    1710.98816       1964.35901
  1913.0     0.000523    1704.71924       1962.81116
  1912.0     0.000523    1698.45105       1971.49377
  1927.0     0.000519    1692.18372       1995.74695
  1969.0     0.000508    1685.91895       2051.36035
  2051.0     0.000488    1679.65686       2152.38916
  2187.0     0.000457    1673.39832       2316.06689
  2391.0     0.000418    1667.14514       2551.93945
  2664.0     0.000375    1660.89697       2849.76074
  2982.0     0.0003353   1654.65527       3160.75708
  3273.0     0.0003055   1648.42126       3380.42725
  3434.0     0.0002912   1642.19507       3394.24243
  3396.0     0.0002945   1635.97791       3207.27612
  3186.0     0.0003139   1629.77100       2939.69800
  2921.0     0.0003423   1623.57446       2696.85498
  2723.0     0.000367    1617.39001       2527.15723
  2649.0     0.000378    1611.21765       2438.88892
  2668.0     0.000375    1605.05859       2416.13623
  2739.0     0.000365    1598.91418       2428.20459
  2819.0     0.000355    1592.78442       2439.32764
  2862.0     0.0003494   1586.67078       2421.94434
  2825.0     0.000354    1580.57410       2370.89185
  2692.0     0.000371    1574.49475       2301.74438
  2497.0     0.000400    1568.43396       2235.13306
  2300.0     0.000435    1562.39270       2185.57446
  2151.0     0.000465    1556.37146       2160.06714
  2067.0     0.000484    1550.37122       2159.98486
  2033.0     0.000492    1544.39307       2181.95459
  2030.0     0.000493    1538.43738       2217.76123
  2045.0     0.000489    1532.50537       2253.51953
  2073.0     0.000482    1526.59753       2275.50513
  2114.0     0.000473    1520.71472       2272.89160
  2158.0     0.000463    1514.85828       2241.66064
  2187.0     0.000457    1509.02820       2188.31494
  2182.0     0.000458    1503.22559       2128.23193
  2135.0     0.000468    1497.45178       2078.28711
  2062.0     0.000485    1491.70667       2051.90063
  1996.0     0.000501    1485.99146       2058.68262
  1968.0     0.000508    1480.30737       2104.77637
  1992.0     0.000502    1474.65430       2192.08105
  2068.0     0.000484    1469.03381       2315.17261
  2181.0     0.000459    1463.44580       2455.16113
  2306.0     0.000434    1457.89160       2573.58838
  2410.0     0.000415    1452.37207       2626.45679
  2470.0     0.000405    1446.88745       2607.22827
  2487.0     0.000402    1441.43860       2560.20020
  2504.0     0.000399    1436.02661       2537.45215
  2564.0     0.000390    1430.65161       2568.49854
  2675.0     0.000374    1425.31458       2655.27612
  2792.0     0.000358    1420.01648       2763.20410
  2838.0     0.000352    1414.75745       2815.52148
  2754.0     0.000363    1409.53833       2737.71143
  2542.0     0.000393    1404.36011       2541.74268
  2270.0     0.000441    1399.22290       2303.76074
  2019.0     0.000495    1394.12781       2084.69409
  1833.0     0.000546    1389.07495       1912.13599
  1717.0     0.000582    1384.06519       1791.30969
  1648.0     0.000607    1379.09949       1715.39978
  1608.0     0.000622    1374.17786       1674.06506
  1585.0     0.000631    1369.30103       1655.43982
  1577.0     0.000634    1364.46985       1652.99805
  1583.0     0.000632    1359.68457       1661.63928
  1605.0     0.000623    1354.94580       1676.59192
  1644.0     0.000608    1350.25439       1691.85510
  1698.0     0.000589    1345.61023       1699.62305
  1757.0     0.000569    1341.01453       1692.46436
  1799.0     0.000556    1336.46692       1668.42285
  1802.0     0.000555    1331.96887       1632.00317
  1760.0     0.000568    1327.52039       1591.47913
  1686.0     0.000593    1323.12134       1550.80554
  1606.0     0.000623    1318.77332       1514.12866
  1541.0     0.000649    1314.47632       1482.62195
  1496.0     0.000668    1310.23059       1454.61646
  1467.0     0.000682    1306.03601       1433.13367
  1448.0     0.000691    1301.89417       1415.73755
  1434.0     0.000697    1297.80481       1401.73132
  1425.0     0.000702    1293.76770       1390.69336
  1419.0     0.000705    1289.78442       1381.72217
  1417.0     0.000706    1285.85474       1373.08020
  1416.0     0.000706    1281.97839       1367.79529
  1417.0     0.000706    1278.15686       1364.06018
  1420.0     0.000704    1274.38977       1361.91870
  1425.0     0.000702    1270.67712       1361.46802
  1428.0     0.000700    1267.01990       1362.98767
  1428.0     0.000700    1263.41809       1367.24365
  1425.0     0.000702    1259.87146       1375.70264
  1423.0     0.000703    1256.38110       1390.47070
  1424.0     0.000702    1252.94666       1412.87854
  1430.0     0.000699    1249.56824       1444.35571
  1443.0     0.000693    1246.24658       1484.54810
  1461.0     0.000684    1242.98157       1529.34863
  1483.0     0.000674    1239.77295       1570.44861
  1503.0     0.000665    1236.62170       1596.55847
  1516.0     0.000660    1233.52759       1601.19763
  1520.0     0.000658    1230.49011       1588.03979
  1515.0     0.000660    1227.51050       1568.37610
  1510.0     0.000662    1224.58826       1555.40894
  1508.0     0.000663    1221.72351       1555.04993
  1518.0     0.000659    1218.91602       1568.46545
  1543.0     0.000648    1216.16638       1591.52039
  1586.0     0.000631    1213.47449       1615.00757
  1644.0     0.000608    1210.83984       1626.75635
  1697.0     0.000589    1208.26343       1617.94067
  1722.0     0.000581    1205.74451       1589.40967
  1704.0     0.000587    1203.28296       1550.38477
  1648.0     0.000607    1200.87952       1510.94067
  1575.0     0.000635    1198.53357       1478.60730
  1509.0     0.000663    1196.24487       1458.28101
  1464.0     0.000683    1194.01404       1454.19189
  1438.0     0.000695    1191.84058       1472.45850
  1430.0     0.000699    1189.72412       1518.14001
  1434.0     0.000697    1187.66516       1594.60461
  1444.0     0.000693    1185.66321       1696.66992
  1456.0     0.000687    1183.71802       1804.95789
  1466.0     0.000682    1181.82983       1880.88733
  1471.0     0.000680    1179.99841       1880.10205
  1473.0     0.000679    1178.22302       1798.82581
  1475.0     0.000678    1176.50427       1679.78564
  1478.0     0.000677    1174.84155       1563.48706
  1481.0     0.000675    1173.23438       1471.12756
  1482.0     0.000675    1171.68323       1408.94006
  1480.0     0.000676    1170.18738       1372.84985
  1476.0     0.000678    1168.74658       1354.99158
  1469.0     0.000681    1167.36060       1346.16284
  1455.0     0.000687    1166.02942       1338.17273
  1433.0     0.000698    1164.75256       1323.59131
  1405.0     0.000712    1163.52954       1303.08228
  1376.0     0.000727    1162.36035       1281.23962
  1353.0     0.000739    1161.24463       1261.86133
  1339.0     0.000747    1160.18176       1246.53760
  1330.0     0.000752    1159.17188       1234.52600
  1324.0     0.000755    1158.21436       1227.14258
  1321.0     0.000757    1157.30872       1222.25891
  1321.0     0.000757    1156.45471       1219.54089
  1325.0     0.000755    1155.65210       1218.79968
  1335.0     0.000749    1154.90015       1219.86475
  1352.0     0.000740    1154.19873       1222.84058
  1377.0     0.000726    1153.54736       1227.53394
  1407.0     0.000711    1152.94556       1233.20593
  1436.0     0.000696    1152.39282       1238.21155
  1452.0     0.000689    1151.88904       1240.32593
  1448.0     0.000691    1151.43323       1238.78320
  1426.0     0.000701    1151.02539       1235.32349
  1395.0     0.000717    1150.66479       1232.17834
  1367.0     0.000732    1150.35107       1230.71204
  1351.0     0.000740    1150.08374       1231.54321
  1344.0     0.000744    1149.86218       1235.18164
  1344.0     0.000744    1149.68591       1241.22766
  1349.0     0.000741    1149.55457       1250.08960
  1357.0     0.000737    1149.46741       1262.03113
  1367.0     0.000732    1149.42395       1277.51318
  1378.0     0.000726    1149.42383       1296.95483
  1391.0     0.000719    1149.46631       1320.58691
  1405.0     0.000712    1149.55078       1348.29089
  1419.0     0.000705    1149.67688       1379.35315
  1438.0     0.000695    1149.84399       1412.88672
  1461.0     0.000684    1150.05139       1447.01990
  1491.0     0.000671    1150.29871       1477.90344
  1530.0     0.000654    1150.58521       1500.40808
  1571.0     0.000637    1150.91016       1511.18262
  1602.0     0.000624    1151.27332       1510.47974
  1613.0     0.000620    1151.67371       1503.39368
  1604.0     0.000623    1152.11096       1495.89075
  1584.0     0.000631    1152.58447       1492.64111
  1567.0     0.000638    1153.09338       1496.94019
  1564.0     0.000639    1153.63721       1511.04919
  1580.0     0.000633    1154.21545       1535.35400
  1610.0     0.000621    1154.82727       1566.69165
  1640.0     0.000610    1155.47205       1597.00110
  1651.0     0.000606    1156.14917       1618.14709
  1633.0     0.000612    1156.85803       1630.39099
  1592.0     0.000628    1157.59790       1642.48352
  1544.0     0.000648    1158.36804       1661.98462
  1510.0     0.000662    1159.16821       1689.83289
  1494.0     0.000669    1159.99719       1720.21692
  1491.0     0.000671    1160.85461       1741.50903
  1494.0     0.000669    1161.73975       1742.75769
  1497.0     0.000668    1162.65198       1726.25879
  1500.0     0.000667    1163.59045       1706.16333
  1504.0     0.000665    1164.55481       1696.61401
  1513.0     0.000661    1165.54407       1709.80188
  1528.0     0.000654    1166.55762       1751.44324
  1550.0     0.000645    1167.59509       1822.14441
  1585.0     0.000631    1168.65527       1915.27844
  1634.0     0.000612    1169.73767       2014.60706
  1698.0     0.000589    1170.84204       2097.69849
  1782.0     0.000561    1171.96704       2150.25610
  1893.0     0.000528    1173.11230       2171.83447
  2022.0     0.000495    1174.27722       2162.27319
  2131.0     0.000469    1175.46094       2120.42896
  2169.0     0.000461    1176.66272       2052.78564
  2117.0     0.000472    1177.88220       1973.90930
  1998.0     0.000501    1179.11829       1900.94824
  1866.0     0.000536    1180.37061       1847.18567
  1769.0     0.000565    1181.63843       1821.09827
  1729.0     0.000578    1182.92090       1825.98962
  1740.0     0.000575    1184.21753       1863.88416
  1790.0     0.000559    1185.52747       1927.46643
  1865.0     0.000536    1186.85034       2000.54480
  1940.0     0.000515    1188.18506       2055.44727
  1987.0     0.000503    1189.53113       2066.32788
  1991.0     0.000502    1190.88831       2031.09851
  1950.0     0.000513    1192.25513       1968.87817
  1881.0     0.000532    1193.63135       1897.52246
  1801.0     0.000555    1195.01660       1827.55652
  1727.0     0.000579    1196.40967       1765.95532
  1669.0     0.000599    1197.81018       1717.47424
  1636.0     0.000611    1199.21765       1684.17627
  1628.0     0.000614    1200.63098       1666.31958
  1640.0     0.000610    1202.04993       1663.55481
  1663.0     0.000601    1203.47375       1674.22620
  1682.0     0.000595    1204.90173       1693.18408
  1686.0     0.000593    1206.33313       1710.46838
  1670.0     0.000599    1207.76782       1715.41223
  1634.0     0.000612    1209.20459       1704.64319
  1590.0     0.000629    1210.64307       1681.40076
  1546.0     0.000647    1212.08276       1650.03162
  1509.0     0.000663    1213.52283       1613.29187
  1483.0     0.000674    1214.96277       1573.68933
  1466.0     0.000682    1216.40222       1534.22925
  1453.0     0.000688    1217.84009       1498.09851
  1444.0     0.000693    1219.27625       1467.74854
  1439.0     0.000695    1220.70984       1444.39783
  1438.0     0.000695    1222.14063       1428.07043
  1446.0     0.000692    1223.56775       1417.96228
  1456.0     0.000687    1224.99060       1412.38989
  1467.0     0.000682    1226.40894       1408.77625
  1472.0     0.000679    1227.82190       1404.30103
  1470.0     0.000680    1229.22900       1397.94629
  1464.0     0.000683    1230.63000       1391.10095
  1460.0     0.000685    1232.02405       1385.90479
  1463.0     0.000684    1233.41064       1383.72888
  1478.0     0.000677    1234.78955       1384.96252
  1507.0     0.000664    1236.15991       1389.17749
  1552.0     0.000644    1237.52148       1395.43445
  1604.0     0.000623    1238.87378       1402.64087
  1649.0     0.000606    1240.21619       1410.20276
  1671.0     0.000598    1241.54810       1418.42725
  1657.0     0.000604    1242.86951       1428.10913
  1614.0     0.000620    1244.17957       1439.72144
  1558.0     0.000642    1245.47791       1452.52966
  1507.0     0.000664    1246.76428       1464.21899
  1474.0     0.000678    1248.03796       1471.67749
  1459.0     0.000685    1249.29858       1471.40552
  1459.0     0.000685    1250.54614       1465.02588
  1463.0     0.000684    1251.77954       1454.80652
  1464.0     0.000683    1252.99890       1443.86462
  1457.0     0.000686    1254.20361       1433.93591
  1441.0     0.000694    1255.39343       1425.83643
  1422.0     0.000703    1256.56775       1421.12793
  1406.0     0.000711    1257.72644       1422.45996
  1401.0     0.000714    1258.86926       1431.25073
  1409.0     0.000710    1259.99548       1448.88403
  1431.0     0.000699    1261.10486       1475.22913
  1464.0     0.000683    1262.19739       1508.69482
  1504.0     0.000665    1263.27246       1545.03833
  1538.0     0.000650    1264.32971       1576.23975
  1556.0     0.000643    1265.36914       1592.48828
  1550.0     0.000645    1266.39014       1588.00928
  1521.0     0.000657    1267.39258       1565.78552
  1477.0     0.000677    1268.37622       1534.71533
  1431.0     0.000699    1269.34070       1503.09827
  1395.0     0.000717    1270.28577       1475.18848
  1371.0     0.000729    1271.21143       1452.11609
  1358.0     0.000736    1272.11707       1433.41370
  1352.0     0.000740    1273.00269       1418.56982
  1354.0     0.000739    1273.86804       1407.60999
  1363.0     0.000734    1274.71277       1400.46338
  1377.0     0.000726    1275.53699       1397.00635
  1394.0     0.000717    1276.34021       1396.58838
  1411.0     0.000709    1277.12231       1398.20447
  1421.0     0.000704    1277.88318       1400.70349
  1427.0     0.000701    1278.62280       1403.47754
  1429.0     0.000700    1279.34082       1407.00452
  1435.0     0.000697    1280.03711       1412.62854
  1447.0     0.000691    1280.71155       1421.09619
  1469.0     0.000681    1281.36414       1433.23096
  1499.0     0.000667    1281.99463       1448.91028
  1532.0     0.000653    1282.60291       1468.21484
  1568.0     0.000638    1283.18909       1491.21399
  1602.0     0.000624    1283.75281       1517.21423
  1629.0     0.000614    1284.29407       1543.58960
  1638.0     0.000611    1284.81299       1564.11987
  1624.0     0.000616    1285.30920       1572.90979
  1592.0     0.000628    1285.78284       1571.04565
  1555.0     0.000643    1286.23401       1564.61340
  1525.0     0.000656    1286.66235       1559.45959
  1509.0     0.000663    1287.06799       1558.25183
  1506.0     0.000664    1287.45105       1560.45068
  1509.0     0.000663    1287.81140       1563.30090
  1517.0     0.000659    1288.14893       1564.36829
  1527.0     0.000655    1288.46387       1560.98779
  1532.0     0.000653    1288.75598       1553.11096
  1532.0     0.000653    1289.02563       1542.61475
  1528.0     0.000654    1289.27258       1532.03564
  1529.0     0.000654    1289.49695       1522.74036
  1545.0     0.000647    1289.69873       1514.82532
  1588.0     0.000630    1289.87817       1507.30762
  1668.0     0.000600    1290.03528       1499.04089
  1780.0     0.000562    1290.17004       1489.28284
  1901.0     0.000526    1290.28271       1478.44458
  1992.0     0.000502    1290.37317       1467.55029
  2017.0     0.000496    1290.44165       1457.93274
  1964.0     0.000509    1290.48816       1451.39099
  1858.0     0.000538    1290.51294       1449.85608
  1743.0     0.000574    1290.51611       1455.43152
  1651.0     0.000606    1290.49768       1469.72839
  1597.0     0.000626    1290.45789       1493.45325
  1575.0     0.000635    1290.39685       1525.22559
  1572.0     0.000636    1290.31482       1561.08447
  1572.0     0.000636    1290.21179       1591.90991
  1565.0     0.000639    1290.08813       1607.03784
  1551.0     0.000645    1289.94373       1603.60193
  1536.0     0.000651    1289.77905       1589.20874
  1519.0     0.000658    1289.59412       1572.78052
  1502.0     0.000666    1289.38928       1559.05933
  1483.0     0.000674    1289.16455       1549.41406
  1463.0     0.000684    1288.92029       1542.90527
  1446.0     0.000692    1288.65662       1537.94617
  1436.0     0.000696    1288.37378       1533.35498
  1440.0     0.000694    1288.07202       1532.16699
  1460.0     0.000685    1287.75146       1535.44141
  1498.0     0.000668    1287.41260       1544.13464
  1546.0     0.000647    1287.05542       1557.49109
  1591.0     0.000629    1286.68030       1572.45593
  1618.0     0.000618    1286.28760       1585.40466
  1624.0     0.000616    1285.87720       1594.21692
  1615.0     0.000619    1285.44983       1600.91370
  1604.0     0.000623    1285.00537       1608.82837
  1602.0     0.000624    1284.54431       1619.64380
  1611.0     0.000621    1284.06689       1632.36133
  1620.0     0.000617    1283.57349       1644.81799
  1617.0     0.000618    1283.06409       1656.17773
  1600.0     0.000625    1282.53931       1667.22461
  1574.0     0.000635    1281.99939       1679.37659
  1549.0     0.000646    1281.44434       1688.87231
  1532.0     0.000653    1280.87488       1689.53552
  1529.0     0.000654    1280.29102       1678.95422
  1538.0     0.000650    1279.69324       1663.57446
  1556.0     0.000643    1279.08179       1651.22327
  1569.0     0.000637    1278.45691       1644.17871
  1566.0     0.000639    1277.81897       1637.48621
  1541.0     0.000649    1277.16846       1622.32434
  1503.0     0.000665    1276.50549       1595.08850
  1465.0     0.000683    1275.83044       1561.92419
  1440.0     0.000694    1275.14368       1532.41724
  1435.0     0.000697    1274.44556       1512.40967
  1447.0     0.000691    1273.73645       1502.97400
  1467.0     0.000682    1273.01648       1502.81555
  1484.0     0.000674    1272.28625       1506.42639
  1495.0     0.000669    1271.54602       1507.08337
  1502.0     0.000666    1270.79590       1500.31226
  1506.0     0.000664    1270.03674       1487.47485
  1510.0     0.000662    1269.26843       1472.62842
  1505.0     0.000664    1268.49146       1457.63660
  1491.0     0.000671    1267.70630       1441.67407
  1473.0     0.000679    1266.91321       1424.54248
  1462.0     0.000684    1266.11230       1409.35669
  1472.0     0.000679    1265.30444       1397.94800
  1508.0     0.000663    1264.48962       1392.45215
  1564.0     0.000639    1263.66821       1392.81934
  1623.0     0.000616    1262.84070       1397.58789
  1661.0     0.000602    1262.00745       1403.81152
  1663.0     0.000601    1261.16858       1407.64026
  1628.0     0.000614    1260.32471       1407.00012
  1571.0     0.000637    1259.47607       1403.81262
  1513.0     0.000661    1258.62305       1402.50476
  1469.0     0.000681    1257.76599       1406.91260
  1446.0     0.000692    1256.90527       1419.68933
  1443.0     0.000693    1256.04126       1442.65967
  1456.0     0.000687    1255.17419       1476.58508
  1479.0     0.000676    1254.30457       1520.78784
  1503.0     0.000665    1253.43274       1572.24634
  1521.0     0.000657    1252.55872       1623.81763
  1526.0     0.000655    1251.68335       1663.56909
  1520.0     0.000658    1250.80676       1679.22791
  1509.0     0.000663    1249.92920       1667.06689
  1496.0     0.000668    1249.05115       1634.89001
  1486.0     0.000673    1248.17285       1593.68787
  1474.0     0.000678    1247.29468       1552.46338
  1459.0     0.000685    1246.41711       1516.71411
  1442.0     0.000693    1245.54028       1488.66016
  1426.0     0.000701    1244.66455       1468.23657
  1415.0     0.000707    1243.79041       1454.29358
  1417.0     0.000706    1242.91809       1445.71252
  1430.0     0.000699    1242.04773       1441.93445
  1450.0     0.000690    1241.17993       1442.39758
  1469.0     0.000681    1240.31494       1445.63440
  1482.0     0.000675    1239.45300       1450.94617
  1490.0     0.000671    1238.59448       1457.73926
  1494.0     0.000669    1237.73975       1466.00891
  1496.0     0.000668    1236.88892       1475.11975
  1495.0     0.000669    1236.04260       1483.69080
  1493.0     0.000670    1235.20081       1489.75452
  1488.0     0.000672    1234.36389       1491.15112
  1480.0     0.000676    1233.53235       1486.50439
  1466.0     0.000682    1232.70630       1475.91736
  1444.0     0.000693    1231.88611       1461.06592
  1418.0     0.000705    1231.07178       1444.32227
  1392.0     0.000718    1230.26404       1427.84753
  1373.0     0.000728    1229.46289       1413.47559
  1367.0     0.000732    1228.66858       1401.01538
  1371.0     0.000729    1227.88159       1391.04041
  1381.0     0.000724    1227.10205       1383.43042
  1390.0     0.000719    1226.33008       1377.73694
  1396.0     0.000716    1225.56628       1373.84546
  1399.0     0.000715    1224.81055       1370.93066
  1399.0     0.000715    1224.06323       1368.99866
  1398.0     0.000715    1223.32471       1368.17896
  1394.0     0.000717    1222.59509       1368.75403
  1389.0     0.000720    1221.87463       1371.40454
  1384.0     0.000723    1221.16357       1376.56738
  1382.0     0.000724    1220.46216       1384.04883
  1382.0     0.000724    1219.77051       1392.60693
  1382.0     0.000724    1219.08899       1400.04443
  1378.0     0.000726    1218.41772       1404.18579
  1368.0     0.000731    1217.75684       1404.27478
  1355.0     0.000738    1217.10669       1400.57666
  1342.0     0.000745    1216.46729       1393.79504
  1331.0     0.000751    1215.83887       1384.40308
  1325.0     0.000755    1215.22180       1375.05908
  1323.0     0.000756    1214.61609       1368.10352
  1327.0     0.000754    1214.02197       1365.89050
  1334.0     0.000750    1213.43945       1368.83911
  1343.0     0.000745    1212.86890       1376.33386
  1354.0     0.000739    1212.31030       1386.49207
  1367.0     0.000732    1211.76392       1396.39075
  1377.0     0.000726    1211.22986       1403.10950
  1381.0     0.000724    1210.70837       1405.61768
  1373.0     0.000728    1210.19934       1402.97083
  1354.0     0.000739    1209.70313       1396.75964
  1329.0     0.000752    1209.21973       1388.31750
  1300.0     0.000769    1208.74927       1378.42334
  1275.0     0.000784    1208.29187       1367.94214
  1256.0     0.000796    1207.84778       1358.47351
  1243.0     0.000805    1207.41687       1349.84131
  1236.0     0.000809    1206.99927       1343.55554
  1232.0     0.000812    1206.59521       1340.20581
  1232.0     0.000812    1206.20471       1339.97266
  1235.0     0.000810    1205.82788       1343.05701
  1241.0     0.000806    1205.46460       1348.45569
  1249.0     0.000801    1205.11511       1356.14148
  1260.0     0.000794    1204.77954       1365.74780
  1269.0     0.000788    1204.45776       1382.20166
  1278.0     0.000782    1204.14990       1394.96643
  1288.0     0.000776    1203.85596       1408.70325
  1297.0     0.000771    1203.57617       1423.05493
  1308.0     0.000765    1203.31030       1436.92554
  1318.0     0.000759    1203.05847       1448.00793
  1328.0     0.000753    1202.82080       1452.64246
  1338.0     0.000747    1202.59729       1448.15649
  1347.0     0.000742    1202.38782       1435.30896
  1353.0     0.000739    1202.19238       1417.12524
  1356.0     0.000737    1202.01123       1397.59326
  1352.0     0.000740    1201.84399       1378.59814
  1344.0     0.000744    1201.69104       1361.58704
  1335.0     0.000749    1201.55212       1346.87427
  1332.0     0.000751    1201.42725       1335.43420
  1340.0     0.000746    1201.31628       1326.87830
  1356.0     0.000737    1201.21948       1321.30066
  1373.0     0.000728    1201.13672       1318.26782
  1385.0     0.000722    1201.06775       1318.22290
  1387.0     0.000721    1201.01270       1318.31238
  1381.0     0.000724    1200.97144       1319.04114
  1368.0     0.000731    1200.94397       1320.42273
  1355.0     0.000738    1200.93030       1322.93848
  1347.0     0.000742    1200.93018       1327.09753
  1345.0     0.000743    1200.94373       1333.14148
  1351.0     0.000740    1200.97070       1341.24927
  1360.0     0.000735    1201.01123       1351.28333
  1372.0     0.000729    1201.06494       1363.49756
  1390.0     0.000719    1201.13196       1378.20178
  1417.0     0.000706    1201.21216       1395.69324
  1454.0     0.000688    1201.30542       1416.03552
  1497.0     0.000668    1201.41162       1438.67542
  1541.0     0.000649    1201.53064       1462.58276
  1578.0     0.000634    1201.66248       1486.38879
  1604.0     0.000623    1201.80688       1508.11218
  1619.0     0.000618    1201.96375       1527.44446
  1629.0     0.000614    1202.13306       1545.41858
  1645.0     0.000608    1202.31470       1564.64868
  1684.0     0.000594    1202.50830       1589.51013
  1759.0     0.000569    1202.71399       1626.73193
  1888.0     0.000530    1202.93152       1687.01062
  2088.0     0.000479    1203.16077       1783.62952
  2375.0     0.000421    1203.40161       1931.53662
  2740.0     0.000365    1203.65393       2142.72925
  3137.0     0.0003188   1203.91748       2418.24683
  3478.0     0.0002875   1204.19214       2739.20630
  3650.0     0.0002740   1204.47766       3053.03345
  3585.0     0.0002789   1204.77405       3265.56201
  3295.0     0.0003035   1205.08118       3280.18481
  2873.0     0.0003481   1205.39868       3091.86621
  2441.0     0.000410    1205.72644       2795.46167
  2091.0     0.000478    1206.06433       2489.52710
  1859.0     0.000538    1206.41223       2229.97656
  1736.0     0.000576    1206.76990       2036.20935
  1689.0     0.000592    1207.13708       1905.13452
  1686.0     0.000593    1207.51379       1822.51990
  1700.0     0.000588    1207.89966       1772.71313
  1714.0     0.000583    1208.29456       1745.20227
  1720.0     0.000581    1208.69824       1733.62659
  1718.0     0.000582    1209.11072       1733.34888
  1717.0     0.000582    1209.53162       1741.93848
  1726.0     0.000579    1209.96082       1761.16394
  1756.0     0.000569    1210.39795       1794.94299
  1813.0     0.000552    1210.84302       1845.41919
  1895.0     0.000528    1211.29590       1907.57703
  1988.0     0.000503    1211.75610       1971.36377
  2076.0     0.000482    1212.22363       2018.44385
  2138.0     0.000468    1212.69836       2029.54492
  2161.0     0.000463    1213.17981       1999.76294
  2151.0     0.000465    1213.66785       1943.13770
  2123.0     0.000471    1214.16248       1880.81641
  2102.0     0.000476    1214.66333       1829.02722
  2110.0     0.000474    1215.17017       1797.21057
  2160.0     0.000463    1215.68286       1789.02722
  2242.0     0.000446    1216.20117       1803.22241
  2325.0     0.000430    1216.72485       1833.14368
  2370.0     0.000422    1217.25378       1865.76660
  2350.0     0.000426    1217.78772       1883.39893
  2265.0     0.000442    1218.32629       1873.63062
  2140.0     0.000467    1218.86963       1840.04956
  2009.0     0.000498    1219.41724       1798.09009
  1893.0     0.000528    1219.96887       1762.94592
  1807.0     0.000553    1220.52454       1744.11987
  1751.0     0.000571    1221.08398       1746.16431
  1731.0     0.000578    1221.64685       1769.67883
  1747.0     0.000572    1222.21301       1812.59045
  1796.0     0.000557    1222.78235       1869.34497
  1862.0     0.000537    1223.35449       1930.37427
  1931.0     0.000518    1223.92920       1982.52478
  1989.0     0.000503    1224.50659       2013.47705
  2027.0     0.000493    1225.08606       2019.03003
  2043.0     0.000489    1225.66772       2004.77271
  2035.0     0.000491    1226.25122       1978.84717
  2002.0     0.000500    1226.83630       1944.00464
  1949.0     0.000513    1227.42273       1898.83032
  1886.0     0.000530    1228.01062       1842.61365
  1823.0     0.000549    1228.59937       1780.16907
  1769.0     0.000565    1229.18896       1718.90308
  1729.0     0.000578    1229.77942       1664.17981
  1700.0     0.000588    1230.37012       1618.15906
  1680.0     0.000595    1230.96118       1580.13464
  1659.0     0.000603    1231.55225       1547.33826
  1625.0     0.000615    1232.14331       1516.90808
  1580.0     0.000633    1232.73389       1488.15503
  1527.0     0.000655    1233.32410       1462.09143
  1474.0     0.000678    1233.91370       1440.53870
  1427.0     0.000701    1234.50232       1423.75879
  1390.0     0.000719    1235.08984       1411.66809
  1363.0     0.000734    1235.67639       1403.81323
  1347.0     0.000742    1236.26147       1399.54541
  1341.0     0.000746    1236.84485       1398.00610
  1341.0     0.000746    1237.42664       1398.39954
  1346.0     0.000743    1238.00659       1399.81934
  1352.0     0.000740    1238.58435       1401.47107
  1353.0     0.000739    1239.16003       1403.33472
  1350.0     0.000741    1239.73328       1405.26538
  1341.0     0.000746    1240.30396       1408.23779
  1330.0     0.000752    1240.87207       1413.52881
  1322.0     0.000756    1241.43726       1421.98718
  1318.0     0.000759    1241.99951       1434.20020
  1321.0     0.000757    1242.55872       1450.40552
  1331.0     0.000751    1243.11462       1470.26196
  1342.0     0.000745    1243.66699       1492.65906
  1351.0     0.000740    1244.21606       1515.78687
  1357.0     0.000737    1244.76135       1538.01282
  1361.0     0.000735    1245.30286       1558.35632
  1365.0     0.000733    1245.84058       1576.65723
  1373.0     0.000728    1246.37415       1593.00171
  1388.0     0.000720    1246.90369       1607.10156
  1412.0     0.000708    1247.42883       1618.18567
  1442.0     0.000693    1247.94971       1625.99084
  1479.0     0.000676    1248.46619       1631.76660
  1528.0     0.000654    1248.97803       1638.43738
  1595.0     0.000627    1249.48523       1649.72437
  1683.0     0.000594    1249.98755       1668.93237
  1786.0     0.000560    1250.48511       1697.98621
  1883.0     0.000531    1250.97778       1736.33496
  1953.0     0.000512    1251.46533       1779.73425
  1975.0     0.000506    1251.94788       1818.22156
  1941.0     0.000515    1252.42517       1837.77039
  1865.0     0.000536    1252.89734       1827.43945
  1768.0     0.000566    1253.36401       1789.63440
  1671.0     0.000598    1253.82544       1736.99487
  1591.0     0.000629    1254.28137       1681.88684
  1537.0     0.000651    1254.73181       1631.52881
  1511.0     0.000662    1255.17676       1588.92078
  1512.0     0.000661    1255.61597       1554.24951
  1535.0     0.000651    1256.04968       1526.94543
  1564.0     0.000639    1256.47766       1505.94165
  1585.0     0.000631    1256.89990       1490.04468
  1585.0     0.000631    1257.31641       1478.38892
  1567.0     0.000638    1257.72729       1470.55115
  1536.0     0.000651    1258.13220       1466.36548
  1505.0     0.000664    1258.53137       1465.85278
  1485.0     0.000673    1258.92456       1469.16382
  1478.0     0.000677    1259.31213       1476.28955
  1487.0     0.000672    1259.69373       1486.76367
  1505.0     0.000664    1260.06946       1500.15137
  1532.0     0.000653    1260.43933       1515.98438
  1565.0     0.000639    1260.80334       1534.48328
  1604.0     0.000623    1261.16150       1558.46069
  1652.0     0.000605    1261.51392       1587.43921
  1708.0     0.000585    1261.86047       1623.89978
  1770.0     0.000565    1262.20117       1669.01697
  1834.0     0.000545    1262.53613       1723.58252
  1897.0     0.000527    1262.86536       1787.86975
  1961.0     0.000510    1263.18884       1860.63831
  2028.0     0.000493    1263.50671       1938.80347
  2104.0     0.000475    1263.81885       2016.36414
  2189.0     0.000457    1264.12549       2084.62354
  2263.0     0.000442    1264.42651       2134.35962
  2299.0     0.000435    1264.72205       2158.47241
  2273.0     0.000440    1265.01208       2153.37256
  2183.0     0.000458    1265.29675       2121.38379
  2050.0     0.000488    1265.57617       2068.42334
  1905.0     0.000525    1265.85022       2002.35864
  1775.0     0.000563    1266.11926       1930.84839
  1675.0     0.000597    1266.38293       1861.00232
  1606.0     0.000623    1266.64172       1797.86694
  1564.0     0.000639    1266.89551       1743.82153
  1545.0     0.000647    1267.14441       1700.20227
  1542.0     0.000649    1267.38855       1666.86487
  1553.0     0.000644    1267.62793       1643.25781
  1576.0     0.000635    1267.86267       1628.32788
  1602.0     0.000624    1268.09290       1620.69531
  1627.0     0.000615    1268.31873       1619.10706
  1645.0     0.000608    1268.54016       1621.14380
  1658.0     0.000603    1268.75745       1625.63574
  1672.0     0.000598    1268.97070       1630.28748
  1695.0     0.000590    1269.17981       1632.83948
  1724.0     0.000580    1269.38513       1631.30908
  1750.0     0.000571    1269.58655       1624.36560
  1756.0     0.000569    1269.78442       1611.92310
  1735.0     0.000576    1269.97876       1594.94910
  1686.0     0.000593    1270.16968       1575.19238
  1618.0     0.000618    1270.35730       1554.72046
  1549.0     0.000646    1270.54175       1535.31262
  1492.0     0.000670    1270.72327       1518.27881
  1455.0     0.000687    1270.90186       1504.06812
  1441.0     0.000694    1271.07776       1493.17163
  1445.0     0.000692    1271.25098       1485.08691
  1459.0     0.000685    1271.42175       1478.97192
  1475.0     0.000678    1271.59009       1473.84460
  1484.0     0.000674    1271.75635       1468.60840
  1483.0     0.000674    1271.92065       1462.42834
  1473.0     0.000679    1272.08301       1455.02954
  1458.0     0.000686    1272.24365       1447.05078
  1440.0     0.000694    1272.40259       1439.01221
  1421.0     0.000704    1272.56018       1431.60657
  1404.0     0.000712    1272.71655       1425.52844
  1392.0     0.000718    1272.87170       1421.17188
  1381.0     0.000724    1273.02600       1418.63013
  1372.0     0.000729    1273.17944       1418.20117
  1365.0     0.000733    1273.33228       1419.40149
  1358.0     0.000736    1273.48462       1422.51147
  1351.0     0.000740    1273.63672       1427.58350
  1345.0     0.000743    1273.78857       1434.74121
  1343.0     0.000745    1273.94043       1443.90881
  1348.0     0.000742    1274.09253       1454.73230
  1361.0     0.000735    1274.24500       1466.17468
  1384.0     0.000723    1274.39795       1478.15112
  1416.0     0.000706    1274.55164       1489.44714
  1457.0     0.000686    1274.70618       1499.56543
  1498.0     0.000668    1274.86169       1508.43701
  1532.0     0.000653    1275.01843       1516.16528
  1550.0     0.000645    1275.17651       1522.64307
  1551.0     0.000645    1275.33618       1527.66284
  1539.0     0.000650    1275.49756       1530.49390
  1524.0     0.000656    1275.66077       1532.07178
  1518.0     0.000659    1275.82605       1533.54224
  1529.0     0.000654    1275.99353       1535.49622
  1557.0     0.000642    1276.16345       1537.89612
  1602.0     0.000624    1276.33582       1539.90735
  1652.0     0.000605    1276.51099       1540.52332
  1692.0     0.000591    1276.68909       1538.92029
  1709.0     0.000585    1276.87024       1534.90857
  1696.0     0.000590    1277.05457       1528.52783
  1660.0     0.000602    1277.24231       1520.56665
  1609.0     0.000622    1277.43372       1512.08826
  1559.0     0.000641    1277.62878       1504.34607
  1519.0     0.000658    1277.82776       1498.53674
  1496.0     0.000668    1278.03076       1495.84167
  1491.0     0.000671    1278.23792       1497.29626
  1504.0     0.000665    1278.44958       1504.14380
  1533.0     0.000652    1278.66577       1517.56079
  1576.0     0.000635    1278.88660       1539.07141
  1634.0     0.000612    1279.11230       1570.03345
  1701.0     0.000588    1279.34314       1611.19104
  1769.0     0.000565    1279.57898       1662.85156
  1833.0     0.000546    1279.82031       1724.55652
  1879.0     0.000532    1280.06689       1793.01489
  1897.0     0.000527    1280.31934       1860.64050
  1883.0     0.000531    1280.57739       1915.08728
  1835.0     0.000545    1280.84143       1940.73718
  1766.0     0.000566    1281.11145       1930.34741
  1691.0     0.000591    1281.38770       1891.16736
  1627.0     0.000615    1281.67029       1839.30640
  1588.0     0.000630    1281.95935       1789.34009
  1578.0     0.000634    1282.25513       1749.98645
  1595.0     0.000627    1282.55750       1724.87280
  1629.0     0.000614    1282.86682       1713.91650
  1671.0     0.000598    1283.18311       1714.57471
  1712.0     0.000584    1283.50659       1721.51794
  1747.0     0.000572    1283.83716       1726.94592
  1774.0     0.000564    1284.17529       1723.88574
  1792.0     0.000558    1284.52075       1709.81897
  1802.0     0.000555    1284.87390       1687.43738
  1796.0     0.000557    1285.23462       1659.87646
  1773.0     0.000564    1285.60327       1629.66711
  1733.0     0.000577    1285.97974       1599.24463
  1680.0     0.000595    1286.36438       1570.37830
  1626.0     0.000615    1286.75696       1544.88672
  1578.0     0.000634    1287.15784       1523.50708
  1538.0     0.000650    1287.56702       1506.11255
  1509.0     0.000663    1287.98462       1492.13171
  1486.0     0.000673    1288.41064       1481.32166
  1470.0     0.000680    1288.84521       1473.81897
  1460.0     0.000685    1289.28845       1470.18896
  1458.0     0.000686    1289.74036       1470.75659
  1466.0     0.000682    1290.20117       1475.67041
  1487.0     0.000672    1290.67078       1485.02185
  1521.0     0.000657    1291.14929       1498.89905
  1568.0     0.000638    1291.63672       1516.81238
  1620.0     0.000617    1292.13330       1537.21338
  1663.0     0.000601    1292.63892       1556.98364
  1685.0     0.000593    1293.15356       1571.97632
  1680.0     0.000595    1293.67761       1578.93396
  1649.0     0.000606    1294.21069       1577.81030
  1604.0     0.000623    1294.75317       1571.72937
  1557.0     0.000642    1295.30493       1564.79126
  1523.0     0.000657    1295.86597       1560.60999
  1504.0     0.000665    1296.43640       1561.46741
  1504.0     0.000665    1297.01624       1568.31506
  1521.0     0.000657    1297.60535       1580.70020
  1548.0     0.000646    1298.20398       1596.59705
  1574.0     0.000635    1298.81213       1612.46057
  1590.0     0.000629    1299.42957       1623.71997
  1590.0     0.000629    1300.05640       1627.63623
  1576.0     0.000635    1300.69275       1624.76807
  1554.0     0.000644    1301.33862       1618.25793
  1533.0     0.000652    1301.99365       1611.76819
  1523.0     0.000657    1302.65833       1607.83667
  1524.0     0.000656    1303.33228       1607.60864
  1530.0     0.000654    1304.01563       1608.84631
  1532.0     0.000653    1304.70825       1609.05200
  1526.0     0.000655    1305.41028       1605.02734
  1509.0     0.000663    1306.12158       1595.53674
  1486.0     0.000673    1306.84204       1581.51904
  1460.0     0.000685    1307.57178       1565.15381
  1436.0     0.000696    1308.31055       1548.50720
  1418.0     0.000705    1309.05847       1533.12622
  1407.0     0.000711    1309.81555       1519.98145
  1406.0     0.000711    1310.58142       1509.46021
  1414.0     0.000707    1311.35632       1501.48425
  1431.0     0.000699    1312.14014       1495.67493
  1452.0     0.000689    1312.93250       1491.58911
  1471.0     0.000680    1313.73364       1488.88977
  1484.0     0.000674    1314.54358       1487.35693
  1489.0     0.000672    1315.36194       1486.83044
  1488.0     0.000672    1316.18872       1487.16211
  1485.0     0.000673    1317.02405       1488.47400
  1485.0     0.000673    1317.86743       1490.91980
  1493.0     0.000670    1318.71899       1494.51794
  1511.0     0.000662    1319.57874       1500.49597
  1537.0     0.000651    1320.44641       1508.12329
  1569.0     0.000637    1321.32190       1516.80530
  1600.0     0.000625    1322.20520       1525.95837
  1625.0     0.000615    1323.09595       1535.71411
  1642.0     0.000609    1323.99426       1546.98889
  1654.0     0.000605    1324.90002       1560.49817
  1663.0     0.000601    1325.81299       1577.16333
  1677.0     0.000596    1326.73303       1597.66724
  1703.0     0.000587    1327.66003       1622.73804
  1744.0     0.000573    1328.59399       1652.13464
  1800.0     0.000556    1329.53442       1684.11340
  1863.0     0.000537    1330.48157       1715.06042
  1917.0     0.000522    1331.43506       1740.11414
  1944.0     0.000514    1332.39478       1755.19788
  1936.0     0.000517    1333.36047       1759.24915
  1893.0     0.000528    1334.33228       1754.22900
  1825.0     0.000548    1335.30969       1742.99353
  1747.0     0.000572    1336.29272       1727.71619
  1672.0     0.000598    1337.28137       1710.05615
  1609.0     0.000622    1338.27502       1690.95789
  1561.0     0.000641    1339.27380       1671.48633
  1526.0     0.000655    1340.27759       1653.16150
  1501.0     0.000666    1341.28601       1636.70264
  1485.0     0.000673    1342.29895       1623.13269
  1477.0     0.000677    1343.31641       1613.30444
  1475.0     0.000678    1344.33777       1607.30188
  1478.0     0.000677    1345.36316       1604.80151
  1485.0     0.000673    1346.39246       1605.47375
  1494.0     0.000669    1347.42529       1606.90210
  1505.0     0.000664    1348.46143       1608.11658
  1519.0     0.000658    1349.50073       1607.71753
  1533.0     0.000652    1350.54309       1604.51929
  1542.0     0.000649    1351.58813       1598.09875
  1543.0     0.000648    1352.63574       1589.07898
  1534.0     0.000652    1353.68591       1578.14868
  1518.0     0.000659    1354.73804       1566.52734
  1500.0     0.000667    1355.79211       1554.70374
  1484.0     0.000674    1356.84790       1543.99304
  1475.0     0.000678    1357.90527       1534.57312
  1479.0     0.000676    1358.96375       1527.28955
  1496.0     0.000668    1360.02356       1520.75354
  1529.0     0.000654    1361.08398       1515.41064
  1575.0     0.000635    1362.14514       1510.27930
  1628.0     0.000614    1363.20679       1507.26465
  1683.0     0.000594    1364.26843       1505.52136
  1732.0     0.000577    1365.33008       1505.48962
  1764.0     0.000567    1366.39148       1507.64294
  1773.0     0.000564    1367.45239       1512.21545
  1762.0     0.000568    1368.51245       1519.73438
  1735.0     0.000576    1369.57178       1530.52625
  1702.0     0.000588    1370.62976       1544.79089
  1678.0     0.000596    1371.68640       1562.35181
  1672.0     0.000598    1372.74146       1582.72278
  1690.0     0.000592    1373.79443       1605.43799
  1726.0     0.000579    1374.84546       1628.62952
  1768.0     0.000566    1375.89404       1649.84570
  1798.0     0.000556    1376.94019       1666.36560
  1805.0     0.000554    1377.98340       1675.78589
  1787.0     0.000560    1379.02368       1678.36450
  1756.0     0.000569    1380.06067       1676.07678
  1726.0     0.000579    1381.09424       1671.18420
  1710.0     0.000585    1382.12390       1664.86230
  1708.0     0.000585    1383.14990       1657.10303
  1713.0     0.000584    1384.17151       1647.59033
  1716.0     0.000583    1385.18872       1636.53796
  1710.0     0.000585    1386.20142       1624.82153
  1690.0     0.000592    1387.20911       1613.52930
  1658.0     0.000603    1388.21179       1603.66772
  1620.0     0.000617    1389.20923       1595.69763
  1583.0     0.000632    1390.20105       1589.78931
  1552.0     0.000644    1391.18713       1585.80505
  1532.0     0.000653    1392.16736       1583.07056
  1522.0     0.000657    1393.14124       1580.90491
  1518.0     0.000659    1394.10864       1578.42639
  1518.0     0.000659    1395.06970       1575.45325
  1518.0     0.000659    1396.02368       1572.27991
  1521.0     0.000657    1396.97058       1569.78271
  1528.0     0.000654    1397.91040       1568.25330
  1538.0     0.000650    1398.84253       1567.97498
  1549.0     0.000646    1399.76697       1568.28357
  1557.0     0.000642    1400.68359       1568.03552
  1557.0     0.000642    1401.59229       1565.76624
  1547.0     0.000646    1402.49243       1561.47266
  1532.0     0.000653    1403.38416       1556.39404
  1515.0     0.000660    1404.26733       1551.79370
  1501.0     0.000666    1405.14148       1548.77490
  1490.0     0.000671    1406.00647       1547.99878
  1485.0     0.000673    1406.86243       1549.85229
  1490.0     0.000671    1407.70874       1554.47510
  1502.0     0.000666    1408.54541       1561.83057
  1522.0     0.000657    1409.37244       1572.05457
  1544.0     0.000648    1410.18933       1584.84692
  1567.0     0.000638    1410.99597       1600.01147
  1591.0     0.000629    1411.79248       1617.29248
  1617.0     0.000618    1412.57825       1636.39380
  1646.0     0.000608    1413.35352       1656.96143
  1682.0     0.000595    1414.11792       1679.55078
  1723.0     0.000580    1414.87122       1704.54297
  1772.0     0.000564    1415.61340       1732.42603
  1827.0     0.000547    1416.34448       1763.62671
  1881.0     0.000532    1417.06384       1797.65662
  1922.0     0.000520    1417.77173       1832.59998
  1937.0     0.000516    1418.46802       1862.88330
  1926.0     0.000519    1419.15222       1882.16199
  1892.0     0.000529    1419.82446       1886.07605
  1850.0     0.000541    1420.48462       1876.95569
  1812.0     0.000552    1421.13245       1861.27393
  1788.0     0.000559    1421.76794       1844.29822
  1781.0     0.000561    1422.39099       1827.79968
  1784.0     0.000561    1423.00146       1810.76025
  1791.0     0.000558    1423.59900       1791.34619
  1793.0     0.000558    1424.18384       1771.08423
  1786.0     0.000560    1424.75586       1752.90027
  1772.0     0.000564    1425.31470       1739.73120
  1757.0     0.000569    1425.86047       1733.14148
  1749.0     0.000572    1426.39319       1734.01221
  1753.0     0.000570    1426.91235       1741.37329
  1774.0     0.000564    1427.41833       1754.32642
  1808.0     0.000553    1427.91089       1770.64600
  1846.0     0.000542    1428.38989       1788.74280
  1882.0     0.000531    1428.85522       1808.84314
  1908.0     0.000524    1429.30713       1833.28259
  1926.0     0.000519    1429.74512       1864.97314
  1939.0     0.000516    1430.16956       1905.74048
  1950.0     0.000513    1430.58008       1955.35547
  1960.0     0.000510    1430.97693       2010.73987
  1972.0     0.000507    1431.35974       2065.18530
  1984.0     0.000504    1431.72876       2108.74634
  1995.0     0.000501    1432.08386       2132.76660
  2001.0     0.000500    1432.42493       2134.10034
  1998.0     0.000501    1432.75208       2115.86914
  1980.0     0.000505    1433.06519       2084.15601
  1946.0     0.000514    1433.36438       2045.63049
  1901.0     0.000526    1433.64954       2005.93701
  1854.0     0.000539    1433.92078       1969.57422
  1814.0     0.000551    1434.17798       1939.22375
  1785.0     0.000560    1434.42114       1914.91663
  1769.0     0.000565    1434.65051       1896.87952
  1762.0     0.000568    1434.86584       1884.35876
  1759.0     0.000569    1435.06726       1876.83960
  1757.0     0.000569    1435.25476       1873.33972
  1756.0     0.000569    1435.42847       1872.31750
  1758.0     0.000569    1435.58826       1872.59326
  1767.0     0.000566    1435.73438       1874.06860
  1790.0     0.000559    1435.86670       1876.76160
  1833.0     0.000546    1435.98547       1879.85461
  1901.0     0.000526    1436.09058       1881.38635
  1985.0     0.000504    1436.18213       1879.09424
  2068.0     0.000484    1436.26025       1871.87756
  2126.0     0.000470    1436.32495       1859.91992
  2140.0     0.000467    1436.37622       1845.36682
  2107.0     0.000475    1436.41431       1830.28113
  2040.0     0.000490    1436.43933       1816.77930
  1962.0     0.000510    1436.45117       1806.31433
  1898.0     0.000527    1436.45020       1799.56982
  1862.0     0.000537    1436.43616       1796.04883
  1850.0     0.000541    1436.40942       1794.72314
  1849.0     0.000541    1436.37012       1794.16394
  1850.0     0.000541    1436.31812       1794.05591
  1846.0     0.000542    1436.25378       1795.46777
  1836.0     0.000545    1436.17712       1800.72498
  1823.0     0.000549    1436.08838       1811.93542
  1812.0     0.000552    1435.98743       1830.20532
  1810.0     0.000552    1435.87463       1855.22156
  1816.0     0.000551    1435.75012       1885.33191
  1837.0     0.000544    1435.61389       1918.02759
  1877.0     0.000533    1435.46619       1951.54468
  1938.0     0.000516    1435.30713       1984.89734
  2018.0     0.000496    1435.13696       2015.96863
  2101.0     0.000476    1434.95569       2039.98804
  2164.0     0.000462    1434.76355       2051.03418
  2185.0     0.000458    1434.56079       2044.84644
  2157.0     0.000464    1434.34741       2021.78271
  2090.0     0.000478    1434.12366       1986.92786
  2008.0     0.000498    1433.88977       1946.67651
  1932.0     0.000518    1433.64587       1906.62964
  1876.0     0.000533    1433.39221       1869.31750
  1835.0     0.000545    1433.12891       1836.25269
  1803.0     0.000555    1432.85608       1807.75879
  1775.0     0.000563    1432.57397       1783.46216
  1748.0     0.000572    1432.28296       1763.10229
  1727.0     0.000579    1431.98291       1745.32324
  1717.0     0.000582    1431.67432       1729.79541
  1725.0     0.000580    1431.35730       1716.17932
  1742.0     0.000574    1431.03186       1704.34058
  1760.0     0.000568    1430.69849       1694.37756
  1768.0     0.000566    1430.35730       1686.42114
  1762.0     0.000568    1430.00842       1680.09436
  1744.0     0.000573    1429.65222       1675.65881
  1722.0     0.000581    1429.28882       1673.30579
  1705.0     0.000587    1428.91833       1673.02100
  1697.0     0.000589    1428.54126       1674.66699
  1695.0     0.000590    1428.15759       1676.88782
  1696.0     0.000590    1427.76758       1677.73779
  1695.0     0.000590    1427.37158       1675.98718
  1689.0     0.000592    1426.96973       1672.08374
  1679.0     0.000596    1426.56226       1667.99585
  1666.0     0.000600    1426.14941       1665.32312
  1653.0     0.000605    1425.73145       1665.14124
  1642.0     0.000609    1425.30859       1668.33716
  1630.0     0.000613    1424.88098       1675.18994
  1621.0     0.000617    1424.44897       1686.45483
  1617.0     0.000618    1424.01282       1702.48950
  1622.0     0.000617    1423.57263       1723.38440
  1638.0     0.000611    1423.12878       1748.57825
  1663.0     0.000601    1422.68152       1776.80688
  1694.0     0.000590    1422.23096       1806.26257
  1725.0     0.000580    1421.77734       1834.27136
  1750.0     0.000571    1421.32104       1859.14917
  1767.0     0.000566    1420.86218       1878.41455
  1784.0     0.000561    1420.40112       1890.70471
  1805.0     0.000554    1419.93799       1894.79468
  1832.0     0.000546    1419.47302       1890.23523
  1859.0     0.000538    1419.00647       1877.82751
  1881.0     0.000532    1418.53870       1859.84900
  1891.0     0.000529    1418.06982       1839.26868
  1889.0     0.000529    1417.60022       1818.84229
  1879.0     0.000532    1417.13000       1800.63171
  1868.0     0.000535    1416.65930       1785.57336
  1867.0     0.000536    1416.18860       1773.91187
  1877.0     0.000533    1415.71802       1765.21179
  1900.0     0.000526    1415.24780       1758.52332
  1924.0     0.000520    1414.77808       1752.72400
  1930.0     0.000518    1414.30933       1746.89502
  1911.0     0.000523    1413.84155       1740.68066
  1868.0     0.000535    1413.37500       1734.36414
  1807.0     0.000553    1412.91016       1728.40479
  1744.0     0.000573    1412.44690       1723.29578
  1689.0     0.000592    1411.98560       1719.15588
  1650.0     0.000606    1411.52661       1715.83032
  1625.0     0.000615    1411.06995       1713.04114
  1610.0     0.000621    1410.61584       1710.50024
  1602.0     0.000624    1410.16467       1707.88245
  1596.0     0.000627    1409.71655       1704.86182
  1588.0     0.000630    1409.27173       1700.61804
  1575.0     0.000635    1408.83032       1695.13098
  1561.0     0.000641    1408.39270       1689.11768
  1544.0     0.000648    1407.95874       1683.38049
  1529.0     0.000654    1407.52905       1678.70288
  1519.0     0.000658    1407.10364       1675.68689
  1513.0     0.000661    1406.68274       1674.70776
  1514.0     0.000661    1406.26636       1676.46558
  1519.0     0.000658    1405.85498       1682.11523
  1530.0     0.000654    1405.44861       1692.11926
  1547.0     0.000646    1405.04749       1706.86938
  1572.0     0.000636    1404.65173       1726.15125
  1606.0     0.000623    1404.26147       1749.10132
  1646.0     0.000608    1403.87708       1774.32019
  1689.0     0.000592    1403.49854       1799.66382
  1733.0     0.000577    1403.12598       1822.18152
  1769.0     0.000565    1402.75977       1837.83752
  1794.0     0.000557    1402.40002       1843.25244
  1802.0     0.000555    1402.04663       1837.86292
  1796.0     0.000557    1401.70007       1824.10083
  1781.0     0.000561    1401.36035       1805.21826
  1766.0     0.000566    1401.02747       1783.85938
  1753.0     0.000570    1400.70178       1761.30859
  1742.0     0.000574    1400.38330       1738.23242
  1730.0     0.000578    1400.07214       1715.69373
  1714.0     0.000583    1399.76843       1694.66870
  1694.0     0.000590    1399.47229       1674.33911
  1671.0     0.000598    1399.18396       1656.28516
  1654.0     0.000605    1398.90332       1640.99402
  1647.0     0.000607    1398.63074       1628.73193
  1658.0     0.000603    1398.36597       1619.56958
  1691.0     0.000591    1398.10938       1613.43640
  1742.0     0.000574    1397.86096       1610.33374
  1803.0     0.000555    1397.62073       1610.59241
  1865.0     0.000536    1397.38892       1614.50952
  1917.0     0.000522    1397.16553       1622.46594
  1946.0     0.000514    1396.95056       1634.67578
  1950.0     0.000513    1396.74402       1650.73950
  1930.0     0.000518    1396.54626       1670.10876
  1896.0     0.000527    1396.35693       1691.79260
  1861.0     0.000537    1396.17639       1714.86145
  1833.0     0.000546    1396.00452       1738.68921
  1819.0     0.000550    1395.84143       1762.80688
  1817.0     0.000550    1395.68713       1786.42004
  1824.0     0.000548    1395.54150       1808.20654
  1832.0     0.000546    1395.40479       1826.92395
  1836.0     0.000545    1395.27686       1841.16711
  1834.0     0.000545    1395.15771       1850.69763
  1829.0     0.000547    1395.04749       1855.14807
  1828.0     0.000547    1394.94604       1854.13892
  1826.0     0.000548    1394.85339       1847.22656
  1821.0     0.000549    1394.76953       1834.59985
  1806.0     0.000554    1394.69446       1817.01611
  1780.0     0.000562    1394.62805       1795.97070
  1743.0     0.000574    1394.57043       1773.35730
  1700.0     0.000588    1394.52148       1751.06470
  1660.0     0.000602    1394.48108       1730.52795
  1630.0     0.000613    1394.44934       1712.79578
  1615.0     0.000619    1394.42603       1698.49561
  1610.0     0.000621    1394.41113       1688.00964
  1613.0     0.000620    1394.40466       1681.59387
  1621.0     0.000617    1394.40662       1679.42822
  1633.0     0.000612    1394.41663       1681.65552
  1651.0     0.000606    1394.43494       1688.21887
  1676.0     0.000597    1394.46118       1698.98096
  1707.0     0.000586    1394.49536       1713.52307
  1741.0     0.000574    1394.53748       1731.15930
  1776.0     0.000563    1394.58728       1751.18030
  1807.0     0.000553    1394.64478       1772.56787
  1832.0     0.000546    1394.70984       1795.01013
  1852.0     0.000540    1394.78223       1818.58582
  1867.0     0.000536    1394.86194       1843.87427
  1885.0     0.000531    1394.94873       1871.25342
  1909.0     0.000524    1395.04260       1899.75439
  1939.0     0.000516    1395.14319       1926.66553
  1972.0     0.000507    1395.25061       1948.10583
  1998.0     0.000501    1395.36462       1960.19641
  2003.0     0.000499    1395.48486       1961.74097
  1980.0     0.000505    1395.61145       1953.76013
  1926.0     0.000519    1395.74414       1938.75085
  1855.0     0.000539    1395.88269       1919.46948
  1781.0     0.000561    1396.02698       1898.12134
  1721.0     0.000581    1396.17676       1876.21130
  1685.0     0.000593    1396.33179       1854.48901
  1673.0     0.000598    1396.49219       1834.05518
  1674.0     0.000597    1396.65735       1815.33850
  1676.0     0.000597    1396.82739       1798.94824
  1674.0     0.000597    1397.00195       1785.42346
  1668.0     0.000600    1397.18079       1775.13855
  1660.0     0.000602    1397.36389       1768.22717
  1656.0     0.000604    1397.55090       1764.55164
  1665.0     0.000601    1397.74146       1763.91260
  1687.0     0.000593    1397.93567       1766.33899
  1721.0     0.000581    1398.13306       1772.62085
  1762.0     0.000568    1398.33337       1783.99609
  1805.0     0.000554    1398.53650       1801.65063
  1850.0     0.000541    1398.74219       1826.11096
  1902.0     0.000526    1398.95020       1856.74976
  1963.0     0.000509    1399.16016       1891.11621
  2028.0     0.000493    1399.37207       1924.37183
  2092.0     0.000478    1399.58545       1949.37854
  2146.0     0.000466    1399.80017       1959.34766
  2183.0     0.000458    1400.01587       1952.02966
  2194.0     0.000456    1400.23230       1930.98779
  2180.0     0.000459    1400.44934       1902.71460
  2145.0     0.000466    1400.66650       1872.22253
  2092.0     0.000478    1400.88379       1842.84558
  2028.0     0.000493    1401.10071       1816.96069
  1960.0     0.000510    1401.31702       1796.53943
  1902.0     0.000526    1401.53259       1783.02527
  1864.0     0.000536    1401.74707       1777.22803
  1849.0     0.000541    1401.96008       1779.28577
  1857.0     0.000539    1402.17139       1788.59802
  1882.0     0.000531    1402.38074       1805.43164
  1921.0     0.000521    1402.58789       1827.87207
  1967.0     0.000508    1402.79260       1853.40417
  2013.0     0.000497    1402.99438       1878.62097
  2053.0     0.000487    1403.19312       1898.65540
  2079.0     0.000481    1403.38855       1910.65601
  2080.0     0.000481    1403.58020       1913.59888
  2058.0     0.000486    1403.76794       1908.01868
  2018.0     0.000496    1403.95154       1894.70569
  1966.0     0.000509    1404.13049       1874.75977
  1909.0     0.000524    1404.30457       1849.95313
  1863.0     0.000537    1404.47363       1822.86340
  1838.0     0.000544    1404.63733       1795.21301
  1836.0     0.000545    1404.79517       1769.27271
  1852.0     0.000540    1404.94714       1745.64539
  1873.0     0.000534    1405.09290       1725.32336
  1887.0     0.000530    1405.23206       1708.65796
  1879.0     0.000532    1405.36438       1695.69727
  1848.0     0.000541    1405.48950       1686.23157
  1800.0     0.000556    1405.60718       1679.83618
  1749.0     0.000572    1405.71729       1675.90234
  1706.0     0.000586    1405.81934       1673.82605
  1678.0     0.000596    1405.91309       1673.13684
  1667.0     0.000600    1405.99829       1673.28369
  1666.0     0.000600    1406.07471       1674.06360
  1670.0     0.000599    1406.14197       1675.34583
  1674.0     0.000597    1406.19995       1677.20715
  1676.0     0.000597    1406.24817       1679.85193
  1675.0     0.000597    1406.28650       1683.09558
  1672.0     0.000598    1406.31458       1686.19360
  1668.0     0.000600    1406.33228       1687.86658
  1660.0     0.000602    1406.33923       1687.15637
  1650.0     0.000606    1406.33521       1684.05249
  1635.0     0.000612    1406.31982       1679.39819
  1616.0     0.000619    1406.29309       1674.19312
  1595.0     0.000627    1406.25452       1669.11060
  1579.0     0.000633    1406.20398       1664.39551
  1567.0     0.000638    1406.14111       1660.24060
  1564.0     0.000639    1406.06580       1656.63330
  1570.0     0.000637    1405.97778       1653.55469
  1582.0     0.000632    1405.87671       1650.93640
  1597.0     0.000626    1405.76245       1648.78271
  1609.0     0.000622    1405.63477       1646.94861
  1618.0     0.000618    1405.49353       1645.15198
  1623.0     0.000616    1405.33826       1642.83801
  1622.0     0.000617    1405.16907       1639.14148
  1623.0     0.000616    1404.98547       1633.30701
  1626.0     0.000615    1404.78735       1624.74841
  1627.0     0.000615    1404.57446       1613.72693
  1622.0     0.000617    1404.34680       1601.20911
  1608.0     0.000622    1404.10388       1588.33716
  1585.0     0.000631    1403.84583       1576.04382
  1556.0     0.000643    1403.57227       1564.92468
  1522.0     0.000657    1403.28296       1555.36658
  1492.0     0.000670    1402.97778       1547.53015
  1468.0     0.000681    1402.65674       1541.48254
  1452.0     0.000689    1402.31958       1537.23682
  1444.0     0.000693    1401.96594       1534.74316
  1441.0     0.000694    1401.59595       1534.21094
  1441.0     0.000694    1401.20935       1535.38611
  1442.0     0.000693    1400.80591       1538.46497
  1445.0     0.000692    1400.38562       1543.36328
  1452.0     0.000689    1399.94824       1550.07629
  1462.0     0.000684    1399.49377       1558.60400
  1479.0     0.000676    1399.02209       1568.71619
  1503.0     0.000665    1398.53308       1580.18176
  1536.0     0.000651    1398.02637       1592.31274
  1572.0     0.000636    1397.50220       1604.47327
  1607.0     0.000622    1396.96045       1615.95435
  1635.0     0.000612    1396.40088       1626.12683
  1655.0     0.000604    1395.82349       1634.55603
  1667.0     0.000600    1395.22815       1640.90405
  1669.0     0.000599    1394.61487       1644.65771
  1665.0     0.000601    1393.98340       1645.47681
  1655.0     0.000604    1393.33398       1643.12170
  1639.0     0.000610    1392.66650       1638.09399
  1619.0     0.000618    1391.98071       1631.52991
  1599.0     0.000625    1391.27673       1624.67163
  1586.0     0.000631    1390.55457       1618.77136
  1585.0     0.000631    1389.81384       1614.70435
  1594.0     0.000627    1389.05505       1613.05884
  1610.0     0.000621    1388.27795       1613.84216
  1630.0     0.000613    1387.48254       1617.39453
  1648.0     0.000607    1386.66895       1623.34998
  1664.0     0.000601    1385.83704       1631.36584
  1680.0     0.000595    1384.98657       1641.56750
  1695.0     0.000590    1384.11816       1652.98962
  1708.0     0.000585    1383.23145       1664.26611
  1719.0     0.000582    1382.32666       1673.33508
  1727.0     0.000579    1381.40369       1678.58667
  1730.0     0.000578    1380.46265       1680.01233
  1724.0     0.000580    1379.50342       1679.34436
  1711.0     0.000584    1378.52637       1678.69250
  1697.0     0.000589    1377.53149       1680.15515
  1680.0     0.000595    1376.51880       1683.43774
  1661.0     0.000602    1375.48840       1687.66162
  1644.0     0.000608    1374.44043       1691.34558
  1631.0     0.000613    1373.37488       1693.45947
  1620.0     0.000617    1372.29150       1694.16797
  1612.0     0.000620    1371.19128       1694.33118
  1606.0     0.000623    1370.07385       1695.46228
  1603.0     0.000624    1368.93921       1698.21191
  1602.0     0.000624    1367.78772       1702.48889
  1606.0     0.000623    1366.61938       1707.25635
  1609.0     0.000622    1365.43420       1710.87817
  1612.0     0.000620    1364.23267       1712.10352
  1614.0     0.000620    1363.01477       1711.00464
  1618.0     0.000618    1361.78076       1708.61047
  1622.0     0.000617    1360.53064       1705.89990
  1626.0     0.000615    1359.26465       1703.42078
  1629.0     0.000614    1357.98267       1700.84424
  1633.0     0.000612    1356.68555       1697.62781
  1637.0     0.000611    1355.37305       1692.80383
  1644.0     0.000608    1354.04541       1685.85632
  1653.0     0.000605    1352.70300       1676.38770
  1657.0     0.000604    1351.34570       1664.39978
  1651.0     0.000606    1349.97363       1650.30493
  1634.0     0.000612    1348.58765       1634.82813
  1604.0     0.000623    1347.18750       1618.79236
  1569.0     0.000637    1345.77356       1602.90125
  1536.0     0.000651    1344.34607       1587.52979
  1514.0     0.000661    1342.90515       1573.12878
  1503.0     0.000665    1341.45117       1559.63428
  1502.0     0.000666    1339.98389       1547.11108
  1508.0     0.000663    1338.50427       1535.61035
  1514.0     0.000661    1337.01233       1525.24268
  1513.0     0.000661    1335.50818       1516.09021
  1501.0     0.000666    1333.99231       1508.26477
  1483.0     0.000674    1332.46472       1501.81958
  1464.0     0.000683    1330.92554       1496.75867
  1446.0     0.000692    1329.37561       1492.89636
  1433.0     0.000698    1327.81482       1490.19202
  1426.0     0.000701    1326.24365       1488.57910
  1421.0     0.000704    1324.66223       1487.89856
  1420.0     0.000704    1323.07092       1487.98804
  1424.0     0.000702    1321.46948       1488.65173
  1433.0     0.000698    1319.85913       1489.57214
  1449.0     0.000690    1318.23975       1490.41772
  1470.0     0.000680    1316.61169       1490.83777
  1490.0     0.000671    1314.97510       1490.44275
  1504.0     0.000665    1313.33032       1488.82544
  1507.0     0.000664    1311.67737       1485.73071
  1501.0     0.000666    1310.01733       1481.16223
  1488.0     0.000672    1308.34998       1475.56055
  1475.0     0.000678    1306.67578       1469.39404
  1468.0     0.000681    1304.99500       1463.07910
  1470.0     0.000680    1303.30798       1457.01245
  1477.0     0.000677    1301.61487       1451.44238
  1485.0     0.000673    1299.91577       1446.58740
  1490.0     0.000671    1298.21179       1442.63550
  1493.0     0.000670    1296.50281       1439.71619
  1495.0     0.000669    1294.78906       1437.89746
  1501.0     0.000666    1293.07104       1437.15076
  1514.0     0.000661    1291.34888       1436.95471
  1530.0     0.000654    1289.62256       1437.01782
  1541.0     0.000649    1287.89331       1436.69202
  1542.0     0.000649    1286.16101       1435.81580
  1529.0     0.000654    1284.42603       1433.96912
  1505.0     0.000664    1282.68848       1431.31348
  1474.0     0.000678    1280.94885       1428.18457
  1447.0     0.000691    1279.20703       1425.00732
  1427.0     0.000701    1277.46411       1422.08508
  1420.0     0.000704    1275.72009       1419.64844
  1422.0     0.000703    1273.97522       1418.38416
  1432.0     0.000698    1272.22974       1418.60400
  1447.0     0.000691    1270.48413       1420.55920
  1465.0     0.000683    1268.73828       1424.13586
  1486.0     0.000673    1266.99316       1428.81360
  1503.0     0.000665    1265.24890       1433.73267
  1515.0     0.000660    1263.50549       1437.70007
  1521.0     0.000657    1261.76355       1440.60681
  1522.0     0.000657    1260.02332       1441.87549
  1518.0     0.000659    1258.28491       1441.35461
  1512.0     0.000661    1256.54846       1439.05090
  1506.0     0.000664    1254.81482       1435.26440
  1501.0     0.000666    1253.08423       1430.61060
  1500.0     0.000667    1251.35669       1425.53357
  1499.0     0.000667    1249.63257       1420.18848
  1496.0     0.000668    1247.91211       1414.71228
  1487.0     0.000672    1246.19531       1409.59058
  1471.0     0.000680    1244.48315       1405.36865
  1450.0     0.000690    1242.77563       1402.33740
  1426.0     0.000701    1241.07288       1400.54761
  1403.0     0.000713    1239.37524       1399.65234
  1383.0     0.000723    1237.68298       1398.94336
  1370.0     0.000730    1235.99585       1397.54309
  1362.0     0.000734    1234.31506       1394.67395
  1359.0     0.000736    1232.64038       1390.36121
  1361.0     0.000735    1230.97217       1384.80164
  1366.0     0.000732    1229.31055       1379.19043
  1373.0     0.000728    1227.65576       1373.92578
  1382.0     0.000724    1226.00757       1369.30530
  1391.0     0.000719    1224.36719       1365.34009
  1399.0     0.000715    1222.73450       1361.83289
  1405.0     0.000712    1221.10950       1358.55200
  1407.0     0.000711    1219.49243       1355.39563
  1403.0     0.000713    1217.88367       1352.47937
  1394.0     0.000717    1216.28333       1350.01099
  1380.0     0.000725    1214.69116       1348.03503
  1366.0     0.000732    1213.10828       1346.64722
  1351.0     0.000740    1211.53430       1345.48328
  1337.0     0.000748    1209.96960       1344.19189
  1327.0     0.000754    1208.41431       1342.46191
  1319.0     0.000758    1206.86853       1340.09692
  1312.0     0.000762    1205.33215       1337.27905
  1308.0     0.000765    1203.80591       1334.07861
  1306.0     0.000766    1202.28992       1330.53662
  1308.0     0.000765    1200.78406       1326.81506
  1317.0     0.000759    1199.28845       1323.01099
  1331.0     0.000751    1197.80347       1319.24048
  1347.0     0.000742    1196.32874       1315.41772
  1363.0     0.000734    1194.86523       1311.66882
  1373.0     0.000728    1193.41260       1308.01941
  1380.0     0.000725    1191.97095       1304.72668
  1384.0     0.000723    1190.54041       1301.88184
  1388.0     0.000720    1189.12122       1299.61877
  1396.0     0.000716    1187.71301       1298.05127
  1409.0     0.000710    1186.31653       1297.18091
  1419.0     0.000705    1184.93176       1297.02820
  1423.0     0.000703    1183.55847       1297.64612
  1417.0     0.000706    1182.19702       1299.11243
  1400.0     0.000714    1180.84729       1301.40088
  1371.0     0.000729    1179.50952       1304.37158
  1341.0     0.000746    1178.18335       1308.19934
  1312.0     0.000762    1176.86951       1312.61328
  1290.0     0.000775    1175.56763       1317.50708
  1275.0     0.000784    1174.27795       1322.58472
  1268.0     0.000789    1173.00049       1327.58838
  1265.0     0.000791    1171.73511       1332.28870
  1263.0     0.000792    1170.48169       1336.47278
  1261.0     0.000793    1169.24084       1340.07581
  1260.0     0.000794    1168.01233       1343.02551
  1258.0     0.000795    1166.79614       1345.72864
  1255.0     0.000797    1165.59216       1348.17981
  1254.0     0.000797    1164.40063       1350.40991
  1255.0     0.000797    1163.22107       1352.28296
  1258.0     0.000795    1162.05408       1353.60034
  1265.0     0.000791    1160.89954       1354.08606
  1273.0     0.000786    1159.75720       1353.65491
  1282.0     0.000780    1158.62732       1352.41760
  1292.0     0.000774    1157.50964       1350.43665
  1304.0     0.000767    1156.40393       1347.97803
  1315.0     0.000760    1155.31067       1345.45496
  1326.0     0.000754    1154.22974       1343.11841
  1333.0     0.000750    1153.16089       1341.29224
  1339.0     0.000747    1152.10425       1340.24084
  1343.0     0.000745    1151.05969       1339.98242
  1346.0     0.000743    1150.02710       1340.52759
  1351.0     0.000740    1149.00635       1341.55676
  1359.0     0.000736    1147.99768       1342.92932
  1370.0     0.000730    1147.00098       1344.44360
  1383.0     0.000723    1146.01611       1346.01685
  1393.0     0.000718    1145.04297       1347.72583
  1397.0     0.000716    1144.08154       1349.60852
  1395.0     0.000717    1143.13147       1351.66345
  1388.0     0.000720    1142.19312       1353.91150
  1376.0     0.000727    1141.26636       1356.09973
  1364.0     0.000733    1140.35083       1357.84607
  1355.0     0.000738    1139.44678       1358.79285
  1351.0     0.000740    1138.55383       1358.68372
  1350.0     0.000741    1137.67188       1357.25244
  1348.0     0.000742    1136.80127       1354.35767
  1343.0     0.000745    1135.94153       1349.84888
  1336.0     0.000749    1135.09265       1343.64270
  1327.0     0.000754    1134.25464       1335.90186
  1313.0     0.000762    1133.42725       1327.17664
  1299.0     0.000770    1132.61035       1318.15674
  1285.0     0.000778    1131.80408       1309.40125
  1272.0     0.000786    1131.00818       1301.36353
  1263.0     0.000792    1130.22266       1294.24805
  1260.0     0.000794    1129.44727       1288.15137
  1264.0     0.000791    1128.68213       1282.97473
  1271.0     0.000787    1127.92688       1278.48010
  1280.0     0.000781    1127.18127       1274.55298
  1286.0     0.000778    1126.44580       1271.15955
  1286.0     0.000778    1125.71985       1268.29663
  1282.0     0.000780    1125.00366       1266.06995
  1276.0     0.000784    1124.29688       1264.59424
  1268.0     0.000789    1123.59949       1263.90295
  1263.0     0.000792    1122.91113       1264.02881
  1263.0     0.000792    1122.23218       1264.89832
  1266.0     0.000790    1121.56238       1266.44458
  1270.0     0.000787    1120.90149       1268.54443
  1274.0     0.000785    1120.24951       1271.15076
  1274.0     0.000785    1119.60620       1274.16138
  1271.0     0.000787    1118.97156       1277.35107
  1263.0     0.000792    1118.34558       1280.32703
  1253.0     0.000798    1117.72815       1282.58447
  1243.0     0.000805    1117.11902       1283.88245
  1237.0     0.000808    1116.51819       1284.23706
  1234.0     0.000810    1115.92566       1284.00354
  1234.0     0.000810    1115.34106       1283.36328
  1239.0     0.000807    1114.76453       1282.45557
  1248.0     0.000801    1114.19604       1281.58508
  1259.0     0.000794    1113.63525       1280.60876
  1271.0     0.000787    1113.08240       1279.56604
  1281.0     0.000781    1112.53711       1278.34143
  1286.0     0.000778    1111.99951       1276.72998
  1286.0     0.000778    1111.46912       1274.64795
  1280.0     0.000781    1110.94641       1272.03821
  1273.0     0.000786    1110.43115       1268.77722
  1262.0     0.000792    1109.92297       1264.70605
  1251.0     0.000799    1109.42224       1259.70227
  1240.0     0.000806    1108.92847       1253.84412
  1228.0     0.000814    1108.44177       1247.55127
  1219.0     0.000820    1107.96216       1241.27832
  1209.0     0.000827    1107.48962       1235.53784
  1200.0     0.000833    1107.02380       1230.60168
  1194.0     0.000838    1106.56494       1226.63477
  1189.0     0.000841    1106.11279       1223.68225
  1188.0     0.000842    1105.66736       1221.72351
  1188.0     0.000842    1105.22864       1220.71167
  1190.0     0.000840    1104.79663       1220.56909
  1192.0     0.000839    1104.37109       1221.14392
  1193.0     0.000838    1103.95227       1222.16736
  1194.0     0.000838    1103.53979       1223.25098
  1196.0     0.000836    1103.13367       1223.94849
  1197.0     0.000835    1102.73413       1223.77576
  1198.0     0.000835    1102.34106       1222.87830
  1202.0     0.000832    1101.95435       1221.18433
  1206.0     0.000829    1101.57385       1218.86877
  1210.0     0.000826    1101.19971       1216.11438
  1212.0     0.000825    1100.83191       1213.08203
  1212.0     0.000825    1100.47021       1209.97278
  1210.0     0.000826    1100.11487       1206.84546
  1206.0     0.000829    1099.76563       1203.84106
  1203.0     0.000831    1099.42273       1201.03088
  1202.0     0.000832    1099.08594       1198.48755
  1203.0     0.000831    1098.75525       1196.25330
  1205.0     0.000830    1098.43066       1194.37610
  1208.0     0.000828    1098.11230       1192.94348
  1215.0     0.000823    1097.80005       1192.00134
  1224.0     0.000817    1097.49402       1191.54004
  1234.0     0.000810    1097.19397       1191.56116
  1243.0     0.000805    1096.90002       1192.03625
  1248.0     0.000801    1096.61206       1192.90161
  1247.0     0.000802    1096.33032       1194.17993
  1243.0     0.000805    1096.05457       1195.83765
  1236.0     0.000809    1095.78503       1197.75134
  1229.0     0.000814    1095.52136       1199.73889
  1224.0     0.000817    1095.26392       1201.62549
  1218.0     0.000821    1095.01233       1203.31836
  1209.0     0.000827    1094.76697       1204.79114
  1197.0     0.000835    1094.52759       1206.21362
  1186.0     0.000843    1094.29419       1207.68689
  1174.0     0.000852    1094.06677       1209.13342
  1164.0     0.000859    1093.84546       1210.44031
  1155.0     0.000866    1093.63025       1211.34619
  1150.0     0.000870    1093.42078       1211.87207
  1147.0     0.000872    1093.21753       1212.18604
  1149.0     0.000870    1093.02014       1212.54248
  1155.0     0.000866    1092.82874       1213.33569
  1162.0     0.000861    1092.64331       1214.47412
  1171.0     0.000854    1092.46375       1215.68359
  1180.0     0.000847    1092.29016       1216.70093
  1191.0     0.000840    1092.12244       1217.04187
  1203.0     0.000831    1091.96057       1216.80176
  1213.0     0.000824    1091.80469       1216.11804
  1222.0     0.000818    1091.65442       1215.21399
  1230.0     0.000813    1091.51013       1214.17371
  1235.0     0.000810    1091.37146       1213.12354
  1237.0     0.000808    1091.23853       1212.00586
  1237.0     0.000808    1091.11133       1210.90967
  1234.0     0.000810    1090.98975       1209.60815
  1231.0     0.000812    1090.87366       1209.00146
  1230.0     0.000813    1090.76318       1208.57019
  1231.0     0.000812    1090.65820       1208.53723
  1237.0     0.000808    1090.55859       1208.81750
  1252.0     0.000799    1090.46448       1209.11267
  1276.0     0.000784    1090.37561       1208.91125
  1308.0     0.000765    1090.29199       1207.84338
  1340.0     0.000746    1090.21350       1205.90393
  1366.0     0.000732    1090.14014       1203.62146
  1378.0     0.000726    1090.07166       1201.46399
  1373.0     0.000728    1090.00818       1199.85303
  1355.0     0.000738    1089.94958       1199.21423
  1325.0     0.000755    1089.89563       1199.75720
  1291.0     0.000775    1089.84644       1201.59326
  1259.0     0.000794    1089.80164       1204.77136
  1238.0     0.000808    1089.76135       1209.09302
  1224.0     0.000817    1089.72534       1214.58118
  1217.0     0.000822    1089.69348       1220.59753
  1215.0     0.000823    1089.66577       1226.35400
  1216.0     0.000822    1089.64197       1230.88074
  1218.0     0.000821    1089.62195       1233.39282
  1221.0     0.000819    1089.60559       1233.66797
  1222.0     0.000818    1089.59277       1232.09558
  1224.0     0.000817    1089.58325       1229.28931
  1224.0     0.000817    1089.57703       1225.77100
  1226.0     0.000816    1089.57397       1221.85022
  1229.0     0.000814    1089.57373       1217.64429
  1231.0     0.000812    1089.57629       1213.14685
  1233.0     0.000811    1089.58142       1208.41003
  1232.0     0.000812    1089.58887       1203.51379
  1226.0     0.000816    1089.59863       1198.57715
  1216.0     0.000822    1089.61047       1193.74475
  1201.0     0.000833    1089.62415       1189.16125
  1186.0     0.000843    1089.63953       1184.92859
  1170.0     0.000855    1089.65649       1181.16064
  1157.0     0.000864    1089.67468       1177.91919
  1148.0     0.000871    1089.69397       1175.25781
  1145.0     0.000873    1089.71411       1173.20654
  1144.0     0.000874    1089.73511       1171.81494
  1145.0     0.000873    1089.75659       1171.02295
  1146.0     0.000873    1089.77832       1170.85779
  1145.0     0.000873    1089.80017       1171.24731
  1144.0     0.000874    1089.82190       1172.11169
  1144.0     0.000874    1089.84338       1173.35376
  1145.0     0.000873    1089.86438       1174.89771
  1147.0     0.000872    1089.88464       1176.71033
  1153.0     0.000867    1089.90405       1178.74487
  1162.0     0.000861    1089.92236       1180.98560
  1172.0     0.000853    1089.93921       1183.45557
  1182.0     0.000846    1089.95471       1186.08142
  1192.0     0.000839    1089.96838       1188.69299
  1199.0     0.000834    1089.98022       1191.26086
  1203.0     0.000831    1089.98987       1193.45801
  1206.0     0.000829    1089.99731       1195.02576
  1207.0     0.000829    1090.00220       1195.76172
  1205.0     0.000830    1090.00452       1195.57629
  1200.0     0.000833    1090.00403       1194.38062
  1193.0     0.000838    1090.00049       1192.29883
  1185.0     0.000844    1089.99390       1189.48401
  1176.0     0.000850    1089.98389       1186.33911
  1167.0     0.000857    1089.97058       1183.12988
  1158.0     0.000864    1089.95349       1180.11841
  1152.0     0.000868    1089.93286       1177.51343
  1150.0     0.000870    1089.90833       1175.42639
  1154.0     0.000867    1089.87988       1173.94299
  1161.0     0.000861    1089.84741       1173.07336
  1168.0     0.000856    1089.81091       1172.82532
  1172.0     0.000853    1089.77002       1173.15271
  1171.0     0.000854    1089.72498       1173.91614
  1167.0     0.000857    1089.67566       1174.92798
  1159.0     0.000863    1089.62195       1175.95618
  1150.0     0.000870    1089.56384       1176.78345
  1145.0     0.000873    1089.50134       1177.45984
  1142.0     0.000876    1089.43457       1178.04602
  1144.0     0.000874    1089.36340       1178.72205
  1149.0     0.000870    1089.28796       1179.64014
  1155.0     0.000866    1089.20825       1180.87732
  1161.0     0.000861    1089.12439       1182.34729
  1166.0     0.000858    1089.03650       1183.96753
  1169.0     0.000855    1088.94470       1185.66650
  1170.0     0.000855    1088.84912       1187.63684
  1169.0     0.000855    1088.74976       1190.04895
  1170.0     0.000855    1088.64697       1193.18494
  1173.0     0.000853    1088.54102       1197.30615
  1178.0     0.000849    1088.43188       1202.60925
  1187.0     0.000842    1088.31995       1209.19934
  1202.0     0.000832    1088.20544       1217.11670
  1220.0     0.000820    1088.08875       1226.25647
  1241.0     0.000806    1087.97009       1236.44348
  1263.0     0.000792    1087.84985       1247.41418
  1281.0     0.000781    1087.72827       1258.66663
  1296.0     0.000772    1087.60583       1269.40625
  1306.0     0.000766    1087.48303       1278.47742
  1313.0     0.000762    1087.36011       1284.69360
  1315.0     0.000760    1087.23767       1287.49463
  1312.0     0.000762    1087.11609       1287.56982
  1307.0     0.000765    1086.99597       1286.09155
  1298.0     0.000770    1086.87781       1284.33057
  1288.0     0.000776    1086.76221       1283.11108
  1281.0     0.000781    1086.64966       1282.74524
  1279.0     0.000782    1086.54089       1283.12549
  1280.0     0.000781    1086.43640       1283.95447
  1281.0     0.000781    1086.33691       1284.94800
  1284.0     0.000779    1086.24316       1285.78455
  1283.0     0.000779    1086.15576       1286.37500
  1279.0     0.000782    1086.07544       1286.67407
  1270.0     0.000787    1086.00293       1286.75903
  1258.0     0.000795    1085.93909       1286.26172
  1246.0     0.000803    1085.88477       1285.26611
  1236.0     0.000809    1085.84058       1283.75952
  1229.0     0.000814    1085.80750       1281.73389
  1229.0     0.000814    1085.78625       1279.07837
  1234.0     0.000810    1085.77783       1275.65369
  1245.0     0.000803    1085.78308       1271.30676
  1258.0     0.000795    1085.80298       1266.11487
  1271.0     0.000787    1085.83826       1260.17090
  1278.0     0.000782    1085.88989       1253.72461
  1278.0     0.000782    1085.95886       1247.12195
  1271.0     0.000787    1086.04602       1240.69666
  1258.0     0.000795    1086.15234       1234.78333
  1241.0     0.000806    1086.27893       1229.64636
  1226.0     0.000816    1086.42664       1225.44849
  1213.0     0.000824    1086.59631       1222.27551
  1207.0     0.000829    1086.78894       1220.17810
  1204.0     0.000831    1087.00549       1218.96655
  1207.0     0.000829    1087.24695       1218.48169
  1212.0     0.000825    1087.51428       1218.69897
  1217.0     0.000822    1087.80835       1219.34985
  1224.0     0.000817    1088.12988       1220.20239
  1232.0     0.000812    1088.48010       1221.01660
  1243.0     0.000805    1088.85950       1221.55396
  1252.0     0.000799    1089.26929       1221.62952
  1262.0     0.000792    1089.70996       1221.13464
  1269.0     0.000788    1090.18250       1220.03247
  1271.0     0.000787    1090.68774       1218.43457
  1270.0     0.000787    1091.22607       1216.34485
  1265.0     0.000791    1091.79834       1213.97253
  1258.0     0.000795    1092.40515       1211.46033
  1249.0     0.000801    1093.04700       1208.94043
  1241.0     0.000806    1093.72461       1206.58984
  1232.0     0.000812    1094.43835       1204.53625
  1224.0     0.000817    1095.18848       1202.88257
  1219.0     0.000820    1095.97546       1201.69971
  1218.0     0.000821    1096.79944       1200.97021
  1222.0     0.000818    1097.66064       1200.83533
  1228.0     0.000814    1098.55933       1201.23438
  1233.0     0.000811    1099.49561       1202.13928
  1236.0     0.000809    1100.46899       1203.49524
  1234.0     0.000810    1101.47949       1205.19702
  1224.0     0.000817    1102.52686       1207.10022
  1211.0     0.000826    1103.61084       1209.03101
  1198.0     0.000835    1104.73083       1210.85986
  1188.0     0.000842    1105.88672       1212.43518
  1181.0     0.000847    1107.07703       1213.82336
  1176.0     0.000850    1108.30127       1215.09900
  1172.0     0.000853    1109.55847       1216.51160
  1171.0     0.000854    1110.84766       1218.22131
  1171.0     0.000854    1112.16748       1220.58179
  1175.0     0.000851    1113.51672       1223.63586
  1181.0     0.000847    1114.89417       1227.31970
  1191.0     0.000840    1116.29736       1231.59583
  1205.0     0.000830    1117.72498       1236.34863
  1224.0     0.000817    1119.17505       1241.41406
  1246.0     0.000803    1120.64539       1246.56189
  1269.0     0.000788    1122.13379       1251.55493
  1291.0     0.000775    1123.63806       1255.96045
  1309.0     0.000764    1125.15503       1259.20593
  1321.0     0.000757    1126.68201       1260.83179
  1322.0     0.000756    1128.21619       1260.73425
  1313.0     0.000762    1129.75452       1259.25244
  1298.0     0.000770    1131.29358       1256.89429
  1283.0     0.000779    1132.83020       1254.07532
  1267.0     0.000789    1134.35999       1251.21338
  1254.0     0.000797    1135.87952       1248.50134
  1245.0     0.000803    1137.38477       1246.06604
  1239.0     0.000807    1138.87146       1244.09851
  1237.0     0.000808    1140.33533       1242.57861
  1237.0     0.000808    1141.77209       1241.44421
  1244.0     0.000804    1143.17651       1240.55762
  1258.0     0.000795    1144.54382       1239.82410
  1275.0     0.000784    1145.86914       1239.27637
  1290.0     0.000775    1147.14734       1239.03052
  1299.0     0.000770    1148.37305       1239.24329
  1298.0     0.000770    1149.54089       1239.95618
  1286.0     0.000778    1150.64551       1241.09827
  1269.0     0.000788    1151.68079       1242.58289
  1248.0     0.000801    1152.64124       1244.34717
  1225.0     0.000816    1153.52100       1246.43457
  1207.0     0.000829    1154.31409       1248.93213
  1193.0     0.000838    1155.01477       1251.96729
  1187.0     0.000842    1155.61707       1255.50488
  1183.0     0.000845    1156.11475       1259.46619
  1184.0     0.000845    1156.50183       1263.58997
  1189.0     0.000841    1156.77271       1267.48328
  1196.0     0.000836    1156.92151       1270.70911
  1204.0     0.000831    1156.94226       1272.83484
  1214.0     0.000824    1156.82935       1273.63318
  1226.0     0.000816    1156.57764       1273.07983
  1238.0     0.000808    1156.18176       1271.24194
  1250.0     0.000800    1155.63660       1268.18250
  1260.0     0.000794    1154.93774       1264.01184
  1270.0     0.000787    1154.08057       1258.94250
  1275.0     0.000784    1153.06104       1253.46863
  1276.0     0.000784    1151.87598       1247.92993
  1273.0     0.000786    1150.52222       1242.62549
  1266.0     0.000790    1148.99731       1237.73877
  1259.0     0.000794    1147.29944       1233.34912
  1252.0     0.000799    1145.42737       1229.47119
  1246.0     0.000803    1143.38074       1226.09204
  1243.0     0.000805    1141.15955       1223.18640
  1242.0     0.000805    1138.76611       1220.70447
  1242.0     0.000805    1136.20264       1218.56311
  1240.0     0.000806    1133.47229       1216.64136
  1235.0     0.000810    1130.58008       1214.80115
  1229.0     0.000814    1127.53198       1212.91455
  1221.0     0.000819    1124.33459       1210.89526
  1212.0     0.000825    1120.99878       1208.71899
  1206.0     0.000829    1117.53406       1206.44519
  1201.0     0.000833    1113.95337       1204.11121
  1196.0     0.000836    1110.27075       1201.78174
  1194.0     0.000838    1106.50293       1199.49951
  1192.0     0.000839    1102.66772       1197.27563
  1190.0     0.000840    1098.78809       1195.04724
  1189.0     0.000841    1094.88672       1192.82544
  1189.0     0.000841    1090.99023       1190.52295
  1190.0     0.000840    1087.12793       1188.11438
  1193.0     0.000838    1083.33240       1185.59790
  1197.0     0.000835    1079.63843       1183.00415
  1199.0     0.000834    1076.08740       1180.38477
  1200.0     0.000833    1072.72156       1177.81335
  1199.0     0.000834    1069.58813       1175.38953
  1196.0     0.000836    1066.73853       1173.23206
  1189.0     0.000841    1064.22888       1171.50403
  1181.0     0.000847    1062.11987       1170.27673
  1173.0     0.000853    1060.47729       1169.59644
  1168.0     0.000856    1059.37329       1169.60205
  1165.0     0.000858    1058.88440       1170.46863
  1164.0     0.000859    1059.09375       1172.42432
  1166.0     0.000858    1060.09106       1175.66260
  1166.0     0.000858    1061.97241       1180.38269
  1166.0     0.000858    1064.84241       1186.67419
  1166.0    .            .                .
  1167.0    .            .                .
  1168.0    .            .                .
  1171.0    .            .                .
  1177.0    .            .                .
  1182.0    .            .                .
  1188.0    .            .                .
  1195.0    .            .                .
  1202.0    .            .                .
  1207.0    .            .                .
  1209.0    .            .                .
  1210.0    .            .                .
  1211.0    .            .                .
  1211.0    .            .                .
  1211.0    .            .                .
  1213.0    .            .                .
  1216.0    .            .                .
  1219.0    .            .                .
  1221.0    .            .                .
  1221.0    .            .                .
  1220.0    .            .                .
  1219.0    .            .                .
  1223.0    .            .                .
  1227.0    .            .                .
  1228.0    .            .                .
  1227.0    .            .                .
  1224.0    .            .                .
  1219.0    .            .                .
  1214.0    .            .                .
  1210.0    .            .                .
  1206.0    .            .                .
  1201.0    .            .                .
  1197.0    .            .                .
  1193.0    .            .                .
  1189.0    .            .                .
  1187.0    .            .                .
  1187.0    .            .                .
  1187.0    .            .                .
  1186.0    .            .                .
  1182.0    .            .                .
  1175.0    .            .                .
  1164.0    .            .                .
  1154.0    .            .                .
  1145.0    .            .                .
  1139.0    .            .                .
  1135.0    .            .                .
  1134.0    .            .                .
  1136.0    .            .                .
  1141.0    .            .                .
  1147.0    .            .                .
  1154.0    .            .                .
  1161.0    .            .                .
  1165.0    .            .                .
  1166.0    .            .                .
  1163.0    .            .                .
  1158.0    .            .                .
  1153.0    .            .                .
  1149.0    .            .                .
  1146.0    .            .                .
  1145.0    .            .                .
  1143.0    .            .                .
  1142.0    .            .                .
  1143.0    .            .                .
  1144.0    .            .                .
  1147.0    .            .                .
  1150.0    .            .                .
  1154.0    .            .                .
  1158.0    .            .                .
  1161.0    .            .                .
  1164.0    .            .                .
  1165.0    .            .                .
  1164.0    .            .                .
  1159.0    .            .                .
  1151.0    .            .                .
  1142.0    .            .                .
  1133.0    .            .                .
  1123.0    .            .                .
  1114.0    .            .                .
  1107.0    .            .                .
  1101.0    .            .                .
  1095.0    .            .                .
  1087.0    .            .                .
  1080.0    .            .                .
  1073.0    .            .                .
  1067.0    .            .                .
  1061.0    .            .                .
  1055.0    .            .                .
  1050.0    .            .                .
  1047.0    .            .                .
  1047.0    .            .                .
  1048.0    .            .                .
  1051.0    .            .                .
  1055.0    .            .                .
  1062.0    .            .                .
  1070.0    .            .                .
  1078.0    .            .                .
  1085.0    .            .                .
  1090.0    .            .                .
  1091.0    .            .                .
  1088.0    .            .                .
  1083.0    .            .                .
  1077.0    .            .                .
  1070.0    .            .                .
  1064.0    .            .                .
  1059.0    .            .                .
  1054.0    .            .                .
  1049.0    .            .                .
  1043.0    .            .                .
  1035.0    .            .                .
  1028.0    .            .                .
  1023.0    .            .                .
  1017.0    .            .                .
  1011.0    .            .                .
  1009.0    .            .                .
  1009.0    .            .                .
  1008.0    .            .                .
  1006.0    .            .                .
  1006.0    .            .                .
  1005.0    .            .                .
  1005.0    .            .                .
  1006.0    .            .                .
  1005.0    .            .                .
  1005.0    .            .                .
  1002.0    .            .                .
  997.0     .            .                .
  991.0     .            .                .
  984.0     .            .                .
  978.0     .            .                .
  972.0     .            .                .
  966.0     .            .                .
  958.0     .            .                .
  949.0     .            .                .
  938.0     .            .                .
  927.0     .            .                .
  915.0     .            .                .
  904.0     .            .                .
  896.0     .            .                .
  890.0     .            .                .
  885.0     .            .                .
  882.0     .            .                .
  880.0     .            .                .
  878.0     .            .                .
  879.0     .            .                .
  879.0     .            .                .
  876.0     .            .                .
  870.0     .            .                .
  860.0     .            .                .
  847.0     .            .                .
  832.0     .            .                .
  815.0     .            .                .
  799.0     .            .                .
  782.0     .            .                .
  767.0     .            .                .
  755.0     .            .                .
  743.0     .            .                .
  733.0     .            .                .
  724.0     .            .                .
  718.0     .            .                .
  712.0     .            .                .
  707.0     .            .                .
  705.0     .            .                .
  704.0     .            .                .
  705.0     .            .                .
  709.0     .            .                .
  713.0     .            .                .
  716.0     .            .                .
  716.0     .            .                .
  715.0     .            .                .
  707.0     .            .                .
  697.0     .            .                .
  684.0     .            .                .
  668.0     .            .                .
  653.0     .            .                .
  638.0     .            .                .
  624.0     .            .                .
  613.0     .            .                .
  603.0     .            .                .
  594.0     .            .                .
  584.0     .            .                .
  575.0     .            .                .
  565.0     .            .                .
  556.0     .            .                .
  547.0     .            .                .
  540.0     .            .                .
  535.0     .            .                .
  529.0     .            .                .
  523.0     .            .                .
  518.0     .            .                .
  511.0     .            .                .
  503.0     .            .                .
  492.0     .            .                .
  476.0     .            .                .
  458.0     .            .                .
  437.0     .            .                .
  417.0     .            .                .
  396.0     .            .                .
  378.0     .            .                .
  361.0     .            .                .
  346.0     .            .                .
  331.0     .            .                .
  317.0     .            .                .
  306.0     .            .                .
  290.0     .            .                .
  276.0     .            .                .
  258.0     .            .                .
  241.0     .            .                .
  222.0     .            .                .
  204.0     .            .                .
  185.0     .            .                .
  165.0     .            .                .
  146.0     .            .                .
  123.0     .            .                .
  93.0      .            .                .
  37.0      .            .                .
   5.0      .            .                .
   0.0      .            .                .
   0.0      .            .                .
   0.0      .            .                .
   0.0      .            .                .
   0.0      .            .                .
   0.0      .            .                .
   0.0      .            .                .
   0.0      .            .                .
   0.0      .            .                .
   0.0      .            .                .
   0.0      .            .                .
   0.0      .            .                .
   0.0      .            .                .
   0.0      .            .                .
   0.0      .            .                .
   0.0      .            .                .
   0.0      .            .                .
   0.0      .            .                .
   0.0      .            .                .
   0.0      .            .                .
   0.0      .            .                .
   0.0      .            .                .
   0.0      .            .                .
   0.0      .            .                .
   0.0      .            .                .
   0.0      .            .                .
   0.0      .            .                .
   0.0      .            .                .
   0.0      .            .                .
   0.0      .            .                .
   0.0      .            .                .
   0.0      .            .                .
   0.0      .            .                .
   0.0      .            .                .
   0.0      .            .                .
   0.0      .            .                .
   0.0      .            .                .
   0.0      .            .                .
   0.0      .            .                .
   0.0      .            .                .
   0.0      .            .                .
   0.0      .            .                .
   0.0      .            .                .
   0.0      .            .                .
   0.0      .            .                .
   0.0      .            .                .
   0.0      .            .                .
   0.0      .            .                .
   0.0      .            .                .
   0.0      .            .                .
   0.0      .            .                .
   0.0      .            .                .
   0.0      .            .                .
   0.0      .            .                .
   0.0      .            .                .
   0.0      .            .                .
   0.0      .            .                .
   0.0      .            .                .
   0.0      .            .                .
   0.0      .            .                .
   0.0      .            .                .
   0.0      .            .                .
   0.0      .            .                .
   0.0      .            .                .
   0.0      .            .                .
   0.0      .            .                .
   0.0      .            .                .
   0.0      .            .                .
   0.0      .            .                .
   0.0      .            .                .
   0.0      .            .                .
   0.0      .            .                .
   0.0      .            .                .
   0.0      .            .                .
   0.0      .            .                .
   0.0      .            .                .
   0.0      .            .                .
   0.0      .            .                .
   0.0      .            .                .
   0.0      .            .                .
   0.0      .            .                .
   0.0      .            .                .
   0.0      .            .                .
   0.0      .            .                .
   0.0      .            .                .
   0.0      .            .                .
   0.0      .            .                .
   0.0      .            .                .
   0.0      .            .                .
   0.0      .            .                .
   0.0      .            .                .
   0.0      .            .                .
   0.0      .            .                .
   0.0      .            .                .
   0.0      .            .                .
   0.0      .            .                .
   0.0      .            .                .
   0.0      .            .                .
   0.0      .            .                .
   0.0      .            .                .
   0.0      .            .                .
   0.0      .            .                .
   0.0      .            .                .
   0.0      .            .                .
   0.0      .            .                .
   0.0      .            .                .
   0.0      .            .                .
   0.0      .            .                .
   0.0      .            .                .
   0.0      .            .                .
   0.0      .            .                .
   0.0      .            .                .
   0.0      .            .                .
   0.0      .            .                .
   0.0      .            .                .
   0.0      .            .                .
   0.0      .            .                .
   0.0      .            .                .
   0.0      .            .                .
   0.0      .            .                .
   0.0      .            .                .
   0.0      .            .                .
   0.0      .            .                .
   0.0      .            .                .
   0.0      .            .                .
   0.0      .            .                .
   0.0      .            .                .
   0.0      .            .                .
   0.0      .            .                .
   0.0      .            .                .
   0.0      .            .                .
   0.0      .            .                .
   0.0      .            .                .
   0.0      .            .                .
   0.0      .            .                .
   0.0      .            .                .
   0.0      .            .                .
   0.0      .            .                .
   0.0      .            .                .
   0.0      .            .                .
   0.0      .            .                .
   0.0      .            .                .
   0.0      .            .                .
   0.0      .            .                .
   0.0      .            .                .
   0.0      .            .                .
   0.0      .            .                .
   0.0      .            .                .
   0.0      .            .                .
   0.0      .            .                .
   0.0      .            .                .
   0.0      .            .                .
   0.0      .            .                .
   0.0      .            .                .
   0.0      .            .                .
   0.0      .            .                .
   0.0      .            .                .
   0.0      .            .                .
   0.0      .            .                .
   0.0      .            .                .
   0.0      .            .                .
   0.0      .            .                .
   0.0      .            .                .
   0.0      .            .                .
   0.0      .            .                .
   0.0      .            .                .
   0.0      .            .                .
   0.0      .            .                .
   0.0      .            .                .
   0.0      .            .                .
   0.0      .            .                .
   0.0      .            .                .
   0.0      .            .                .
   0.0      .            .                .
   0.0      .            .                .
   0.0      .            .                .
   0.0      .            .                .
   0.0      .            .                .
   0.0      .            .                .
   0.0      .            .                .
   0.0      .            .                .
   0.0      .            .                .
   0.0      .            .                .
   0.0      .            .                .
   0.0      .            .                .
   0.0      .            .                .
   0.0      .            .                .
   0.0      .            .                .
   0.0      .            .                .
   0.0      .            .                .
   0.0      .            .                .
   0.0      .            .                .
   0.0      .            .                .
   0.0      .            .                .
   0.0      .            .                .
   0.0      .            .                .
   0.0      .            .                .
   0.0      .            .                .
   0.0      .            .                .
   0.0      .            .                .
   0.0      .            .                .
   0.0      .            .                .
   0.0      .            .                .
   0.0      .            .                .
   0.0      .            .                .
   0.0      .            .                .
   0.0      .            .                .
   0.0      .            .                .
   0.0      .            .                .
   0.0      .            .                .
   0.0      .            .                .
   0.0      .            .                .
   0.0      .            .                .
   0.0      .            .                .
   0.0      .            .                .
   0.0      .            .                .
   0.0      .            .                .
   0.0      .            .                .
   0.0      .            .                .
   0.0      .            .                .
   0.0      .            .                .
   0.0      .            .                .
   0.0      .            .                .
   0.0      .            .                .
   0.0      .            .                .
   0.0      .            .                .
   0.0      .            .                .
   0.0      .            .                .
   0.0      .            .                .
   0.0      .            .                .
   0.0      .            .                .
   0.0      .            .                .
   0.0      .            .                .
   0.0      .            .                .
   0.0      .            .                .
   0.0      .            .                .
   0.0      .            .                .
   0.0      .            .                .
   0.0      .            .                .
   0.0      .            .                .
   0.0      .            .                .
   0.0      .            .                .
   0.0      .            .                .
   0.0      .            .                .
   0.0      .            .                .
   0.0      .            .                .
   0.0      .            .                .
   0.0      .            .                .
   0.0      .            .                .
   0.0      .            .                .
   0.0      .            .                .
   0.0      .            .                .
   0.0      .            .                .
   0.0      .            .                .
   0.0      .            .                .
   0.0      .            .                .
   0.0      .            .                .
   0.0      .            .                .
   0.0      .            .                .
   0.0      .            .                .
   0.0      .            .                .
   0.0      .            .                .
   0.0      .            .                .
   0.0      .            .                .
   0.0      .            .                .
   0.0      .            .                .
   0.0      .            .                .
   0.0      .            .                .
   0.0      .            .                .
   0.0      .            .                .
   0.0      .            .                .
   0.0      .            .                .
   0.0      .            .                .
   0.0      .            .                .
   0.0      .            .                .
   0.0      .            .                .
   0.0      .            .                .
   0.0      .            .                .
   0.0      .            .                .
   0.0      .            .                .
   0.0      .            .                .
   0.0      .            .                .
   0.0      .            .                .
   0.0      .            .                .
   0.0      .            .                .
   0.0      .            .                .
   0.0      .            .                .
   0.0      .            .                .
   0.0      .            .                .
   0.0      .            .                .
   0.0      .            .                .
   0.0      .            .                .
   0.0      .            .                .
   0.0      .            .                .
   0.0      .            .                .
   0.0      .            .                .
   0.0      .            .                .
   0.0      .            .                .
   0.0      .            .                .
   0.0      .            .                .
   0.0      .            .                .
   0.0      .            .                .
   0.0      .            .                .
   0.0      .            .                .
   0.0      .            .                .
   0.0      .            .                .
   0.0      .            .                .
   0.0      .            .                .
   0.0      .            .                .
   0.0      .            .                .
   0.0      .            .                .
   0.0      .            .                .
   0.0      .            .                .
   0.0      .            .                .
   0.0      .            .                .
   0.0      .            .                .
   0.0      .            .                .
   0.0      .            .                .
   0.0      .            .                .
   0.0      .            .                .
   0.0      .            .                .
   0.0      .            .                .
   0.0      .            .                .
   0.0      .            .                .
   0.0      .            .                .
   0.0      .            .                .
   0.0      .            .                .
   0.0      .            .                .
   0.0      .            .                .
   0.0      .            .                .
   0.0      .            .                .
   0.0      .            .                .
   0.0      .            .                .
   0.0      .            .                .
   0.0      .            .                .
   0.0      .            .                .
   0.0      .            .                .
   0.0      .            .                .
   0.0      .            .                .
_pd_meas_number_of_points              3274
_pd_proc_number_of_points              3274

loop_
      _refln_index_h
      _refln_index_k
      _refln_index_l
      _refln_observed_status
      _refln_F_squared_meas
      _refln_F_squared_calc
      _refln_phase_calc
      _refln_d_spacing
      _gsas_i100_meas
   1   0   1 o  13832.494  13321.873   0.00   11.17622  21.86
   1   1   0 o  765.223    1158.926    0.00   10.10547   0.76
   0   0   2 o  357087.5   355929.5    0.00    8.96621 100.00
   1   0   2 o  47571.73   44237.80  -90.00    7.59517  25.39
   1   1   2 o  363.062    387.246   -43.66    6.70684   0.27
   2   0   0 o  145992.88  146139.38 -180.00   7.14565  74.57
   2   0   1 o  6016.634   6580.377  -90.00    6.63805   3.75
   2   1   0 o  40.439     199.403   -180.00   6.39126   0.02
   2   1   1 o  27236.910  27299.020  -4.42    6.02032  19.18
   2   0   2 o  25243.949  22907.938   0.00    5.58811   9.97
   1   0   3 o  18723.152  17703.010 -180.00   5.51455   4.37
   2   1   2 o  15082.429  14379.814  74.83    5.20440   9.09
   2   2   0 o  70209.05   69419.77    0.00    5.05274  15.94
   2   0   3 o  35412.78   32881.957 -90.00    4.58483   7.56
   2   1   3 o  5660.205   6422.281   -2.21    4.36567   2.30
   3   0   1 o  2402.515   2572.779   180.00   4.60408   0.86
   0   0   4 o  127876.13  130819.46  180.00   4.48311   6.66
   2   2   2 o  45949.18   46016.84  -169.50   4.40190  13.92
   1   0   4 o  9577.045   11808.842 -90.00    4.27758   1.30
   3   1   0 o  4104.235   3901.896  -180.00   4.51931   1.23
   3   1   1 o  1189.856   1301.223  -50.92    4.38228   0.59
   3   0   2 o  17754.502  19082.254  90.00    4.20687   4.89
   1   1   4 o  11168.859  8273.608  -105.07   4.09795   2.06
   3   1   2 o  7303.535   6111.861  -116.42   4.03565   3.22
   2   0   4 o  3597.713   3736.934    0.00    3.79758   0.59
   3   0   3 o  16604.846  18888.756   0.00    3.72541   2.90
   3   2   0 o  7031.202   8865.976  -180.00   3.96369   1.55
   3   2   1 o  4532.350   2749.753  -169.04   3.87028   2.01
   2   1   4 o  22301.957  20750.939  77.58    3.67021   6.51
   3   2   2 o  4444.494   4300.514   142.47   3.62526   1.65
   3   1   3 o  2446.772   2290.734  -80.86    3.60494   0.73
   1   0   5 o  31953.318  29801.451  180.00   3.47862   3.40
   2   2   4 o  26573.225  25698.766 -174.75   3.35342   3.74
   4   0   0 o  79285.59   74215.84   180.00   3.57282  10.15
   4   0   1 o  6142.853   7323.224   90.00    3.50395   1.45
   3   0   4 o  324.376    353.024    90.00    3.26475   0.03
   3   2   3 o  2931.654   3157.171  -174.50   3.30341   0.84
   2   0   5 o  25332.475  23095.916 -90.00    3.20540   3.01
   4   1   0 o  203.066    140.387   -180.00   3.46615   0.04
   4   1   1 o  44613.53   46325.23  -177.49   3.40316  15.36
   3   1   4 o  197.315    195.491   -63.10    3.18276   0.05
   4   0   2 o  144404.22  141893.02  180.00   3.31902  27.76
   2   1   5 o  2953.744   3367.878   152.77   3.12769   0.53
   3   3   0 o  1202.696   1212.031    0.00    3.36849   0.11
   4   1   2 o  39102.30   36764.05  -98.12    3.23298  11.54
   3   3   2 o  2074.129   2548.875    6.80    3.15330   0.36
   4   0   3 o  19724.131  19131.754  90.00    3.06676   3.07
   3   2   4 o  9880.462   11352.613  88.43    2.96949   2.04
   4   2   1 o  1885.321   2426.416  -168.46   3.14607   0.46
   4   2   0 o  35184.30   32614.467  180.00   3.19563   4.77
   4   2   2 o  19213.240  19543.953  -3.70    3.01016   5.26
   4   1   3 o  3677.441   4231.425  -157.57   2.99850   0.73
   0   0   6 o  24221.096  31616.146  180.00   2.98874   0.33
   1   0   6 o  678.701    1083.378   90.00    2.92545   0.06
   3   0   5 o  469.761    208.603     0.00    2.86524   0.04
   1   1   6 o  2774.558   1212.791   163.53   2.86602   0.19
   3   1   5 o  676.017    469.390   -168.84   2.80933   0.11
   4   0   4 o  203.657    134.852    180.00   2.79406   0.02
   4   2   3 o  753.215    537.523   -88.42    2.81818   0.16
   2   0   6 o  86592.70   81690.60  -180.00   2.75727   7.68
   4   1   4 o  29542.287  27271.365 -94.02    2.74214   5.20
   4   3   1 o  11342.707  8475.383  -13.64    2.82263   2.87
   4   3   0 o   0.226      0.070     180.00   2.85826   0.00
   2   1   6 o  3228.723   4164.642   120.57   2.70735   0.35
   3   3   4 o  4640.434   6708.419  -30.05    2.69302   0.53
   5   0   1 o  1791.488   1355.928   180.00   2.82263   0.29
   4   3   2 o  8660.998   9106.196   81.30    2.72324   1.72
   5   0   2 o   1.945      2.046    -90.00    2.72324   0.00
   3   2   5 o  2026.770   2623.545   30.71    2.65941   0.31
   5   1   1 o  101.223    87.197     156.02   2.76914   0.02
   5   1   2 o  867.883    1234.898   21.40    2.67510   0.16
   5   1   0 o  4686.794   3116.328    0.00    2.80275   0.64
   4   2   4 o  21209.750  17571.357  -1.18    2.60220   3.51
   3   0   6 o  293.393    304.298    90.00    2.53172   0.02
   4   0   5 o  2544.803   2635.902   90.00    2.53118   0.15
   5   0   3 o  1843.902   1973.730    0.00    2.57862   0.23
   4   3   3 o  2023.458   2155.739  -77.32    2.57862   0.35
   2   2   6 o  18721.803  19901.055 -22.71    2.57241   2.08
   3   1   6 o  155.889    138.094   -49.54    2.49291   0.01
   4   1   5 o  9052.122   7952.031  -17.48    2.49239   1.53
   5   1   3 o  3133.982   3346.865   87.94    2.53765   0.45
   5   2   1 o  25401.203  25397.488  178.82   2.62524   4.79
   5   2   2 o  11754.217  13323.371  78.37    2.54470   2.67
   5   2   0 o   0.001      0.001     180.00   2.65383   0.00
   1   0   7 o  3608.417   3768.249   180.00   2.52158   0.23
   3   2   6 o  1832.922   1909.380   104.97   2.38637   0.26
   4   2   5 o  1031.128   1082.445  -74.10    2.38592   0.17
   5   2   3 o  242.142    253.222    153.52   2.42552   0.05
   2   0   7 o  2800.145   2599.630  -90.00    2.41149   0.20
   4   4   0 o  69494.27   71136.26    0.00    2.52637   3.16
   4   3   4 o  2482.036   2275.064   51.45    2.41009   0.46
   5   0   4 o  11618.094  10646.241  90.00    2.41009   1.10
   4   4   2 o  5427.238   5692.736   128.19   2.43168   0.59
   2   1   7 o  3864.946   3725.659   160.89   2.37787   0.31
   5   1   4 o  620.940    583.813    114.25   2.37654   0.07
   5   3   1 o  1877.675   2066.658   140.71   2.42836   0.29
   5   3   0 o  176.885    123.463     0.00    2.45094   0.02
   4   0   6 o  35882.94   27673.959   0.00    2.29242   1.80
   5   3   2 o  697.700    451.508   -92.60    2.36420   0.10
   4   1   6 o  4695.089   5274.678  -40.08    2.26348   0.57
   3   0   7 o  8413.888   10443.377  180.00   2.25623   0.55
   5   2   4 o  2200.768   1820.977   66.22    2.28370   0.26
   3   3   6 o  4551.634   5122.164  -13.02    2.23561   0.19
   4   3   5 o  1349.698   1514.507  -128.12   2.23524   0.17
   5   0   5 o  48788.87   54779.68    0.00    2.23524   2.98
   5   3   3 o  427.334    455.824    140.84   2.26771   0.06
   3   1   7 o  1645.300   1745.723   117.48   2.22862   0.10
   6   0   2 o  524.020    368.522   -180.00   2.30204   0.06
   6   0   1 o  2829.106   1690.773  -90.00    2.36115   0.32
   6   0   0 o  17658.293  24793.533 -180.00   2.38188   1.00
   5   1   5 o  11183.900  11704.553  85.18    2.20840   1.25
   6   1   2 o  5356.605   5162.911   110.52   2.27274   0.71
   6   1   1 o  1697.868   596.166   -18.53    2.32957   0.27
   6   1   0 o  30.467     14.022    -180.00   2.34947   0.00
   4   2   6 o  6874.775   7011.534   54.39    2.18284   0.88
   1   0   8 o  6406.073   6832.893   90.00    2.21448   0.29
   6   0   3 o  619.574    660.692   -90.00    2.21268   0.06
   0   0   8 o  3932.329   4948.528   180.00   2.24155   0.01
   4   4   4 o  3560.347   3712.884   135.74   2.20095   0.33
   1   1   8 o  429.746    453.725    99.28    2.18836   0.02
   3   2   7 o  3313.376   2125.512   69.93    2.15152   0.40
   6   1   3 o  2290.571   2458.407  -170.50   2.18663   0.27
   5   3   4 o  667.757    414.961    129.09   2.15054   0.08
   6   2   1 o  4671.577   6343.451   68.00    2.24192   0.65
   5   2   5 o  11.024      9.574     31.65    2.13331   0.00
   6   2   0 o  4458.848   6171.033    0.00    2.25965   0.36
   6   2   2 o  4657.263   4977.683   154.90   2.19114   0.70
   5   4   1 o  8816.677   9556.128   13.86    2.21484   1.39
   2   1   8 o  756.756    823.620   -17.10    2.11523   0.05
   5   4   0 o  461.602    487.590   -180.00   2.23193   0.03
   2   0   8 o  15673.426  12158.761 -180.00   2.13879   0.98
   5   4   2 o  1977.155   1517.101  -108.10   2.16583   0.27
   4   3   6 o  571.268    501.071   -119.80   2.06568   0.04
   4   0   7 o  178.298    152.887    90.00    2.08191   0.01
   6   2   3 o  5833.086   6581.837   103.99   2.11367   0.91
   6   1   4 o  2385.541   2012.906   128.83   2.08101   0.20
   5   1   6 o  3646.562   1836.883   140.93   2.04444   0.41
   6   0   4 o  1882.767   2228.805  -180.00   2.10343   0.15
   5   0   6 o  1850.921   1631.601  -90.00    2.06568   0.07
   4   1   7 o  16041.783  13366.809  -6.27    2.06016   1.23
   5   4   3 o  1671.116   1584.547   47.52    2.09092   0.15
   2   2   8 o  16993.762  9743.754  -37.96    2.04898   0.67
   4   2   7 o  1586.045   1685.875  -95.68    1.99880   0.14
   3   0   8 o  1623.946   1247.888   90.00    2.02824   0.09
   6   3   1 o  616.669    699.488    59.51    2.11554   0.08
   5   3   5 o  2961.083   2704.275  -109.31   2.02356   0.33
   6   3   0 o  997.936    944.436   -180.00   2.13042   0.07
   6   2   4 o  4642.194   4903.230   -0.95    2.01783   0.45
   5   2   6 o  988.235    1131.960   60.25    1.98443   0.13
   6   3   2 o  5183.525   4452.353  -125.31   2.07272   0.73
   3   1   8 o  27.984     28.815     68.23    2.00811   0.00
   5   4   4 o  7162.291   7734.893  -71.35    1.99801   0.76
   6   0   5 o  622.863    722.473    90.00    1.98417   0.04
   6   3   3 o  3671.217   3788.896   19.71    2.00677   0.55
   6   1   5 o  1169.948   951.526    168.61   1.96532   0.09
   4   4   6 o  3030.542   3282.199  -37.62    1.92941   0.10
   3   2   8 o  831.475    525.451   -50.98    1.95116   0.07
   1   0   9 o  1191.781   1226.866    0.00    1.97341   0.04
   4   3   7 o  709.982    723.424    -3.00    1.90769   0.04
   5   0   7 o  28713.867  29258.098   0.00    1.90769   0.99
   7   0   2 o  7625.035   9421.946   90.00    1.99066   0.62
   7   1   1 o  98.438     103.225    29.74    2.00838   0.01
   4   0   8 o  1273.793   1315.077    0.00    1.89879   0.05
   7   0   1 o  7792.505   6588.118    0.00    2.02851   0.64
   5   3   6 o  784.079    795.688    131.82   1.89518   0.07
   6   3   4 o  1810.116   1951.980   162.51   1.92420   0.22
   5   1   7 o  2681.075   2706.286   98.94    1.89091   0.24
   5   5   0 o  21.155     23.374      0.00    2.02109   0.00
   2   0   9 o  366.036    373.320    90.00    1.91928   0.02
   7   1   2 o  221.928    226.546    90.84    1.97163   0.02
   5   5   2 o  417.216    421.354    117.47   1.97163   0.03
   6   2   5 o  3060.704   3058.619  -75.91    1.91183   0.20
   4   1   8 o  622.107    685.395    124.04   1.88225   0.03
   7   0   3 o  3004.100   3463.392    0.00    1.93203   0.23
   2   1   9 o  401.058    418.002    -6.72    1.90220   0.03
   7   1   0 o  97.329     111.703    180.00   2.02109   0.01
   5   4   5 o  123.525    124.877    177.10   1.89495   0.02
   3   3   8 o  541.745    717.854   -71.39    1.86613   0.03
   6   4   1 o  4090.239   3951.209   154.79   1.96985   0.44
   6   0   6 o  7772.580   10950.211   0.00    1.86270   0.32
   7   1   3 o  183.645    180.578   -50.74    1.91461   0.02
   6   4   0 o  9379.812   11651.079 -180.00   1.98185   0.51
   6   4   2 o  12497.591  14059.738 -11.71    1.93514   1.16
   7   2   1 o  4120.635   2144.018   -9.59    1.95140   0.40
   6   1   6 o  1067.761   2021.375  -175.45   1.84708   0.08
   5   2   7 o  629.409    1084.643  -34.30    1.84313   0.07
   7   2   0 o  3884.593   2922.646    0.00    1.96306   0.22
   7   2   2 o  1116.632   1108.212  -41.87    1.91764   0.11
   4   2   8 o  4613.986   6182.769   54.70    1.83511   0.28
   7   0   4 o  1666.163   2786.365   90.00    1.85802   0.11
   6   4   3 o  4815.631   5418.354   77.12    1.88115   0.36
   7   1   4 o  192.517    353.638   -35.45    1.84251   0.02
   5   5   4 o  1586.101   2875.203  -119.60   1.84251   0.07
   7   2   3 o  1229.392   1642.127  -154.60   1.86506   0.13
   3   0   9 o  1096.553   1667.446   180.00   1.83818   0.05
   6   3   5 o  880.187    1047.613  -39.86    1.83164   0.08
   6   2   6 o  12543.154  10436.504 -18.43    1.80247   1.02
   3   1   9 o  367.688    335.267    83.55    1.82316   0.02
   5   4   6 o  10848.123  9413.442  -83.87    1.78830   0.98
   6   4   4 o  954.716    831.193   -122.76   1.81263   0.07
   3   2   9 o  8224.290   8308.309   161.22   1.78022   0.46
   7   2   4 o  3361.954   2691.929   66.22    1.79822   0.27
   7   3   1 o  382.358    495.048   -59.49    1.86635   0.04
   5   3   7 o  2235.536   2152.178  -111.60   1.77096   0.17
   7   3   2 o  2023.964   3149.350   178.70   1.83674   0.24
   7   3   0 o  1989.924   2501.970   180.00   1.87654   0.12
   4   3   8 o  1110.581   955.366    32.20    1.76384   0.08
   5   0   8 o  55395.32   47646.15  -90.00    1.76384   1.77
   5   1   8 o  2900.097   2298.559   173.05   1.75056   0.19
   7   0   5 o  2858.979   2893.720   180.00   1.77428   0.14
   0   0  10 o  11720.255  9309.485   180.00   1.79324   0.02
   6   0   7 o  719.972    637.290   -90.00    1.74438   0.02
   7   3   3 o  321.303    258.806   -86.49    1.79039   0.04
   4   0   9 o  3184.670   2963.344   90.00    1.74018   0.11
   7   1   5 o  2454.047   1970.598  -75.23    1.76076   0.15
   6   3   6 o  3142.484   2949.146   71.30    1.73480   0.26
   1   0  10 o  8753.572   9121.833   90.00    1.77929   0.20
   6   1   7 o  1342.834   1252.295   17.82    1.73153   0.10
   6   5   1 o  625.082    508.064   -53.90    1.82036   0.06
   4   1   9 o  3792.406   3534.396   -4.13    1.72742   0.16
   6   5   2 o  1506.597   1160.845   78.57    1.79286   0.15
   6   5   0 o  420.694    468.971   -180.00   1.82981   0.02
   1   1  10 o  1788.900   1594.817  -32.20    1.76566   0.05
   2   0  10 o  40072.37   37707.10    0.00    1.73931   1.68
   5   2   8 o  2248.050   2910.260   55.80    1.71244   0.17
   6   4   5 o  10417.271  9775.604   62.65    1.73463   0.87
   7   3   4 o  2590.593   2389.232   167.59   1.73101   0.30
   6   5   3 o  177.876    137.706   -56.64    1.74967   0.01
   2   1  10 o  430.829    398.267   -36.22    1.72657   0.03
   4   4   8 o  1319.309   1275.047  -148.18   1.67671   0.03
   7   2   5 o  85.600     84.035    -129.21   1.72199   0.00
   6   2   7 o  10820.803  14628.670 -52.01    1.69462   1.00
   8   0   1 o  3101.562   3487.587   90.00    1.77761   0.19
   4   2   9 o  1177.448   1384.528  -95.87    1.69076   0.05
   8   0   2 o  36830.26   26183.898   0.00    1.75198   2.20
   7   0   6 o  1550.378   1609.951   90.00    1.68583   0.06
   5   4   7 o  7846.838   7996.441  -178.60   1.68283   0.38
   8   1   1 o  4632.987   3993.750   41.22    1.76402   0.41
   7   4   1 o  13732.204  11815.944 -177.73   1.76402   1.31
   3   0  10 o  8165.883   8031.522  -90.00    1.67827   0.32
   5   3   8 o  1789.139   1694.834   101.90   1.65410   0.11
   7   4   2 o  2915.174   2802.304   88.29    1.73896   0.26
   8   1   2 o  7994.463   7729.757   69.41    1.73896   0.67
   5   5   6 o  1978.159   1843.928  -57.01    1.67422   0.10
   7   1   6 o  1122.692   1044.779  -25.98    1.67422   0.06
   7   4   0 o  732.371    751.496    180.00   1.77262   0.04
   6   5   4 o  909.657    1250.561   23.26    1.69413   0.05
   8   0   0 o  217089.45  195894.31   0.00    1.78641   6.52
   8   0   3 o  631.028    885.476    90.00    1.71161   0.04
   2   2  10 o  6189.175   7063.133  -170.85   1.68997   0.13
   3   1  10 o  160.718    146.750   -25.58    1.66682   0.01
   7   3   5 o  189.438    171.834    40.07    1.66270   0.01
   6   3   7 o  2565.884   2600.890  -156.97   1.63801   0.21
   8   1   0 o  3823.201   3945.523    0.00    1.77262   0.18
   4   3   9 o  1891.249   1825.510   23.93    1.63454   0.13
   5   0   9 o  4131.160   3986.375  -180.00   1.63454   0.11
   8   1   3 o  920.404    1614.665   78.04    1.69946   0.07
   7   4   3 o  533.975    917.899    52.24    1.69946   0.05
   6   0   8 o  42312.09   40093.20    0.00    1.63237   1.19
   6   4   6 o  58119.24   56465.88  -176.08   1.65171   4.74
   5   1   9 o  1191.517   1197.030  -121.17   1.62395   0.06
   6   1   8 o  564.050    578.287    51.97    1.62183   0.04
   8   2   1 o  3164.207   2754.137  -23.50    1.72504   0.22
   7   2   6 o  352.982    374.186    19.24    1.64078   0.02
   8   2   2 o  1078.204   2015.605   11.19    1.70158   0.07
   8   0   4 o  1193.065   1071.394  -180.00   1.65951   0.06
   8   2   0 o  11673.355  10829.806  180.00   1.73307   0.44
   3   2  10 o  670.557    638.955    46.88    1.63382   0.03
   6   5   5 o  4223.910   3929.735   160.12   1.62993   0.30
   7   4   4 o  4003.192   4134.099  -74.47    1.64844   0.32
   8   1   4 o  5567.783   5759.903   117.94   1.64844   0.41
   8   2   3 o  962.005    870.325    97.22    1.66452   0.07
   7   0   7 o  2487.287   2436.333  -180.00   1.59660   0.07
   5   2   9 o  8043.476   7351.035  -24.88    1.59338   0.41
   6   2   8 o  1164.252   1027.403  -179.50   1.59138   0.09
   7   1   7 o  2994.759   2582.726  -70.88    1.58673   0.17
   6   6   0 o  74808.77   73543.72    0.00    1.68425   1.45
   5   4   8 o  385.204    348.835    81.01    1.58160   0.01
   4   0  10 o  19440.445  22514.363 -180.00   1.60270   0.55
   8   0   5 o  3214.018   3362.169  -90.00    1.59903   0.13
   6   6   2 o  143.083    130.258   -103.48   1.65530   0.01
   8   2   4 o  1133.073   1231.768   174.46   1.61649   0.07
   4   1  10 o  3299.935   2966.324   103.09   1.59271   0.13
   8   3   1 o  763.493    691.912    -6.94    1.66544   0.07
   7   3   6 o  1078.506   920.014    114.29   1.58925   0.07
   7   4   5 o  2602.338   2193.645   91.84    1.58912   0.19
   8   1   5 o  2624.604   2202.690  -152.25   1.58912   0.16
   6   4   7 o  5445.529   5577.146   69.53    1.56753   0.36
   8   3   2 o  282.841    326.324   -65.65    1.64430   0.03
   4   2  10 o  485.373    467.165   -64.25    1.56384   0.02
   8   3   0 o  24.344     20.952      0.00    1.67267   0.00
   3   3  10 o  4356.166   3893.639  -153.58   1.58291   0.13
   1   0  11 o  18427.309  19223.508   0.00    1.61972   0.32
   7   5   1 o  2220.643   2033.855   175.60   1.65425   0.17
   7   2   7 o  316.188    283.991    139.96   1.55818   0.02
   7   5   2 o  193.527    176.544     2.51    1.63353   0.01
   7   5   0 o  209.178    185.185     0.00    1.66133   0.01
   8   3   3 o  318.841    411.800    59.37    1.61079   0.03
   2   0  11 o  2303.583   1948.498   90.00    1.58938   0.07
   5   3   9 o  253.118    236.529   -123.49   1.54606   0.01
   6   3   8 o  1024.724   969.503   -137.06   1.54423   0.07
   7   5   3 o  126.798    141.305   -92.60    1.60066   0.01
   6   5   6 o  4795.954   4358.567  -102.78   1.56056   0.37
   8   2   5 o  14505.067  13024.476  121.11   1.56044   0.69
   2   1  11 o  800.112    732.745   -50.91    1.57964   0.04
   6   6   4 o  3426.136   3248.580   158.42   1.57665   0.07
   6   0   9 o  2889.795   3498.954  -90.00    1.52828   0.07
   8   3   4 o  103.207    108.327   -10.18    1.56714   0.01
   3   0  11 o  9224.280   8886.360   180.00   1.54241   0.30
   6   1   9 o  173.474    202.209    104.29   1.51961   0.01
   5   0  10 o  10866.943  12516.299 -90.00    1.51903   0.23
   4   3  10 o  874.389    1006.653   70.60    1.51903   0.05
   7   5   4 o  1327.977   1164.663   58.93    1.55781   0.06
   7   3   7 o  46.223     46.132    -30.80    1.51384   0.00
   3   1  11 o  376.520    429.773   -80.64    1.53350   0.02
   8   0   6 o  14341.651  16439.586 -180.00   1.53338   0.44
   5   1  10 o  5153.754   4759.946   132.90   1.51052   0.19
   7   0   8 o  916.090    827.672    90.00    1.50938   0.02
   8   1   6 o  65.011     82.639     29.58    1.52463   0.00
   7   4   6 o  4118.764   5213.832  -69.94    1.52463   0.28
   8   4   1 o  855.133    698.664   -72.08    1.59151   0.08
   5   5   8 o  10253.334  9140.667  -18.19    1.50104   0.16
   7   1   8 o  3949.411   3515.301   19.72    1.50104   0.22
   8   4   2 o  25298.803  26556.744 -179.39   1.57303   2.25
   8   4   0 o  2674.610   2683.319  -180.00   1.59782   0.12
   8   3   5 o  857.440    911.571    132.19   1.51591   0.06
   9   0   1 o  12.740     11.362      0.00    1.58173   0.00
   6   2   9 o  3901.334   4139.728  -33.66    1.49448   0.24
   9   0   2 o  17545.984  16646.693 -90.00    1.56359   0.76
   6   5   7 o  1055.128   1236.774   165.34   1.48899   0.06
   8   4   3 o  5511.589   5066.503  -109.22   1.54362   0.49
   3   2  11 o  368.583    322.880    162.50   1.50768   0.01
   7   5   5 o  311.397    268.185   -84.21    1.50745   0.02
   5   4   9 o  12785.521  14286.442 -179.51   1.48637   0.46
   9   1   1 o  779.859    865.512    40.04    1.57213   0.05
   5   2  10 o  1452.419   1609.679  -58.22    1.48583   0.06
   6   4   8 o  10919.278  11790.548 -163.03   1.48475   0.54
   9   1   2 o  1442.696   1291.381  -56.36    1.55432   0.10
   9   0   3 o  13135.115  15059.688  180.00   1.53469   0.56
   8   2   6 o  11669.313  10627.016 -165.48   1.49925   0.45
   7   2   8 o  3976.939   3015.276  -115.63   1.47680   0.25
   4   1  11 o  665.056    465.024   -158.00   1.47520   0.03
   9   1   3 o  1014.029   1354.257   102.61   1.52592   0.07
   9   1   0 o  1456.645   1305.780    0.00    1.57821   0.05
   8   4   4 o  360.324    301.334    63.55    1.50508   0.03
   7   6   0 o  1171.982   1088.643  -180.00   1.55011   0.04
   8   0   7 o  40.622     29.832     90.00    1.46532   0.00
   4   0  11 o  2363.599   2446.376   90.00    1.48313   0.06
   4   4  10 o  2853.894   2267.385   64.29    1.46231   0.07
   7   6   1 o  726.430    648.845    42.11    1.54435   0.05
   9   2   1 o  3335.190   2930.118  -24.99    1.54435   0.17
   9   0   4 o  11494.792  11327.675 -90.00    1.49680   0.45
   9   2   2 o  1942.646   2561.226  -91.69    1.52745   0.10
   7   6   2 o  4111.340   5359.196  -112.08   1.52745   0.26
   0   0  12 o  68093.61   74707.53    0.00    1.49437   0.13
   7   4   7 o  59.882     53.199    -22.10    1.45768   0.00
   8   1   7 o  2809.907   2495.719  -168.65   1.45768   0.12
   6   3   9 o  45.588     43.508     140.42   1.45522   0.00
   9   2   0 o  167.744    156.608     0.00    1.55011   0.00
   9   1   4 o  177.396    225.534   -133.16   1.48866   0.01
   4   2  11 o  323.859    337.293   -162.11   1.45218   0.01
   1   0  12 o  797.729    938.538    90.00    1.48627   0.01
   6   6   6 o  2172.102   1507.094   26.32    1.46730   0.07
   9   2   3 o  10572.067  8981.098  -28.51    1.50048   0.59
   7   6   3 o  8653.948   7424.718   177.40   1.50048   0.40
   5   3  10 o  518.826    576.144    105.33   1.44724   0.02
   1   1  12 o  1481.176   1212.909   -1.97    1.47829   0.03
   8   3   6 o  1250.637   1052.947  -136.29   1.45963   0.06
   8   4   5 o  5997.231   5049.219  -111.59   1.45952   0.41
   7   3   8 o  209.069    235.148   -140.40   1.43889   0.01
   7   1   9 o  1178.189   1155.366  -68.61    1.41891   0.06
   8   2   7 o  6555.217   6938.823   149.44   1.43545   0.27
   8   5   0 o  1374.858   1414.296   180.00   1.51487   0.05
   7   5   6 o  208.444    219.868   -78.51    1.45207   0.01
   9   0   5 o  10975.563  11796.443 -180.00   1.45197   0.36
   6   0  10 o  9520.043   9647.278    0.00    1.43262   0.19
   7   6   4 o  748.589    547.201   -159.18   1.46501   0.03
   9   2   4 o  24056.928  17544.838 -106.95   1.46501   1.30
   8   5   1 o  2159.409   1847.099   179.51   1.50950   0.15
   8   5   2 o  1229.649   1458.252  -128.71   1.49371   0.08
   2   0  12 o  61.284     47.847    -180.00   1.46272   0.00
   9   1   5 o  1036.312   1210.231   106.09   1.44454   0.06
   7   0   9 o  719.732    715.024     0.00    1.42595   0.02
   6   1  10 o  1639.419   1627.559   97.23    1.42548   0.07
   6   4   9 o  1156.277   1260.620   72.04    1.40513   0.05
   6   2  10 o  8739.966   9502.042   150.27   1.40467   0.41
   9   3   1 o  378.977    309.463    -8.47    1.50115   0.02
   2   1  12 o  2783.461   2684.883  -140.24   1.45512   0.12
   9   3   2 o  295.354    369.224    104.10   1.48561   0.02
   8   5   3 o  909.567    586.005   -139.63   1.46845   0.06
   6   5   8 o  8457.358   8323.620  -72.09    1.41749   0.35
   7   2   9 o  2526.102   2419.189   174.44   1.39838   0.14
   9   3   0 o  2525.992   2024.989   180.00   1.50643   0.08
   4   3  11 o  253.366    251.720    80.55    1.41608   0.01
   5   0  11 o  7796.973   7745.527   180.00   1.41608   0.13
   5   4  10 o  20688.070  19567.131  95.49    1.39793   0.76
   2   2  12 o  13940.353  14121.049 -30.63    1.43301   0.25
   9   3   3 o  3730.966   3027.785    0.33    1.46076   0.26
   5   1  11 o  1545.092   1669.925  -95.16    1.40918   0.05
   3   0  12 o  4935.997   4902.930  -90.00    1.42586   0.13
   9   2   5 o  1587.861   1559.996  -134.39   1.42289   0.07
   7   6   5 o  880.864    865.826   -80.31    1.42289   0.03
   8   5   4 o  2331.532   2455.681  -58.22    1.43515   0.13
   3   1  12 o  120.353    117.477   -14.39    1.41882   0.01
   8   3   7 o  1062.334   1088.648  -119.88   1.40056   0.05
   8   0   8 o  24371.078  22405.361  180.00   1.39703   0.53
   9   3   4 o  2172.806   2149.098   16.10    1.42797   0.14
   7   5   7 o  2080.635   1804.548   118.67   1.39388   0.12
   8   4   6 o  28169.441  30819.777   1.27    1.40909   1.66
   8   1   8 o  3662.749   3256.790  -76.60    1.39040   0.16
   7   4   8 o  26.166     23.289     21.72    1.39040   0.00
   6   3  10 o  4502.796   4242.136  -103.80   1.37192   0.20
   5   2  11 o  1099.342   996.511   -73.48    1.38907   0.04
   9   0   6 o  518.486    559.728   -90.00    1.40229   0.01
   7   3   9 o  40.372     38.828    -159.24   1.36607   0.00
   3   2  12 o  304.255    289.840   -133.26   1.39829   0.01
   9   1   6 o  1903.078   1660.917   133.80   1.39559   0.08
   8   5   5 o  8017.801   6931.086  -17.93    1.39550   0.43
   4   0  12 o  6708.397   6337.156  -180.00   1.37864   0.14
   7   6   6 o  2047.409   1939.794  -143.26   1.37604   0.09
   5   3  11 o  168.555    183.827   -162.44   1.35738   0.01
   9   4   1 o  2222.691   2609.806   179.45   1.44633   0.17
   9   3   5 o  1580.055   1424.732   -0.96    1.38889   0.08
   9   4   2 o  523.153    511.539    95.34    1.43242   0.04
   4   1  12 o  4147.169   3903.786   76.26    1.37227   0.15
   7   7   0 o   2.721      3.335     180.00   1.44364   0.00
   8   2   8 o  1464.661   1373.688  -71.53    1.37107   0.07
   9   4   0 o   1.836      2.148    -180.00   1.45106   0.00
   3   3  12 o  2589.497   2486.900  -142.53   1.36598   0.04
   7   7   2 o  154.245    153.879    46.24    1.42528   0.00
   6   5   9 o  2133.823   2032.334    9.55    1.34772   0.07
   9   4   3 o  5956.048   6582.543  -176.51   1.41011   0.46
   7   0  10 o  2333.437   2218.015  -90.00    1.34732   0.05
   6   6   8 o  8680.840   8182.440  -179.65   1.34651   0.17
   6   0  11 o  358.346    341.764   -90.00    1.34530   0.01
   9   2   6 o  7693.202   7292.238  -132.10   1.37604   0.30
   8   6   0 o  32984.027  32087.762  180.00   1.42913   0.94
   5   5  10 o  11617.133  12328.010 -19.74    1.34137   0.17
   7   1  10 o  5100.089   5411.510  -27.64    1.34137   0.23
   8   3   8 o  3105.543   3405.879  -10.16    1.34057   0.15
   6   1  11 o  6218.004   7143.126   169.56   1.33938   0.20
   8   4   7 o  1117.692   1228.710  -94.91    1.35573   0.06
  10   0   1 o  6439.655   6436.871  -90.00    1.42461   0.21
   8   6   1 o  4848.225   4824.783  -168.35   1.42461   0.27
   4   2  12 o  36133.10   38418.06  -173.89   1.35367   1.19
  10   0   2 o  29590.520  32259.100   0.00    1.41131   0.93
   8   6   2 o  402.170    435.154    72.21    1.41131   0.02
   8   5   6 o  8526.059   8580.640   32.53    1.35122   0.46
   7   5   8 o  608.461    804.770   -113.95   1.33471   0.03
   9   4   4 o  40690.41   38406.20   91.12    1.38055   2.77
   9   0   7 o  2094.210   2030.424   180.00   1.34967   0.04
  10   1   1 o  4492.590   4236.244  -26.07    1.41759   0.24
  10   1   2 o  1854.132   2199.877   56.96    1.40448   0.10
   8   0   9 o  1480.744   1847.439   90.00    1.33009   0.03
   6   4  10 o  6973.035   8543.781  -17.67    1.32971   0.26
   8   6   3 o  1016.277   889.265   -57.54    1.38996   0.04
  10   0   3 o  13359.466  11635.065 -90.00    1.38996   0.41
   9   3   6 o  1114.344   1032.982  -20.06    1.34522   0.05
   7   7   4 o  2092.758   1985.565  -66.12    1.37415   0.03
   9   1   7 o  1252.918   1212.656   81.72    1.34369   0.04
   1   0  13 o  20994.168  19812.213   0.00    1.37304   0.26
  10   1   0 o  27.434     26.575     180.00   1.42204   0.00
   8   1   9 o  608.876    618.770    43.22    1.32437   0.03
   7   4   9 o  6660.857   6766.610  -23.69    1.32437   0.30
   7   2  10 o  2225.349   2228.382   158.77   1.32399   0.10
  10   1   3 o  209.744    204.205     4.26    1.38343   0.01
  10   0   0 o  9492.585   9197.643    0.00    1.42913   0.16
   2   0  13 o  3049.793   3330.690   90.00    1.35441   0.06
   6   2  11 o  573.175    535.493    94.52    1.32207   0.02
   2   1  13 o  1695.867   1595.761  -119.02   1.34837   0.06
   5   4  11 o  453.562    351.357   -145.22   1.31645   0.01
  10   0   4 o  884.273    931.211   -180.00   1.36162   0.03
   8   6   4 o  3462.111   3636.485  -13.31    1.36162   0.13
   9   4   5 o  9204.565   8433.086   -3.46    1.34514   0.51
  10   2   1 o  4787.118   4169.732   29.12    1.39712   0.20
  10   2   2 o  7544.597   7429.527  -160.27   1.38457   0.34
   7   6   7 o  4681.962   5126.166   -5.29    1.32622   0.20
   9   2   7 o  3003.178   3293.966   176.85   1.32622   0.11
  10   1   4 o  6455.471   7382.887   61.48    1.35548   0.34
   4   3  12 o  731.317    741.721   -126.96   1.32429   0.02
   5   0  12 o  90.581     91.877     90.00    1.32429   0.00
  10   2   0 o  8001.192   9178.356    0.00    1.40138   0.16
   8   2   9 o  1280.860   1166.622  -165.42   1.30763   0.06
  10   2   3 o  649.022    631.002    80.87    1.36438   0.03
   9   5   0 o  101.459    93.294      0.00    1.38809   0.00
   5   1  12 o  2384.314   1955.469   110.86   1.31865   0.07
   5   2  12 o  1054.075   1083.560  -122.49   1.30212   0.04
   9   5   1 o  1257.744   1235.812  -90.49    1.38395   0.08
   9   5   2 o  322.940    299.852    95.82    1.37175   0.02
   8   4   8 o  2388.715   2488.299  -20.44    1.30110   0.12
   8   6   5 o  5103.926   6003.197   -5.13    1.32761   0.20
  10   0   5 o  2281.592   2698.754  -90.00    1.32761   0.06
   7   3  10 o  902.496    926.860   -157.00   1.29646   0.04
   9   0   8 o  4037.464   4132.011   90.00    1.29574   0.06
   3   0  13 o  17303.273  18089.146  180.00   1.32499   0.36
   6   3  11 o  7030.246   7152.312    6.45    1.29466   0.27
   9   5   3 o  6680.755   6958.777  -100.40   1.35211   0.43
  10   2   4 o  5888.029   7826.910  -170.02   1.33755   0.28
  10   1   5 o  5525.767   5128.340   128.46   1.32192   0.26
   9   1   8 o  880.879    905.487   -165.92   1.29045   0.03
   9   4   6 o  25149.627  24628.889  98.05    1.30535   1.20
   3   1  13 o  599.631    499.917   -73.28    1.31933   0.02
   8   5   7 o  3397.701   3414.507   -0.96    1.30395   0.17
   3   2  13 o  3549.504   3642.928   -3.13    1.30278   0.11
   4   4  12 o  104616.08  113107.59   0.29    1.28620   1.22
  10   3   1 o  6210.680   5917.596   149.29   1.36489   0.30
   7   7   6 o  1810.664   1916.400   -7.96    1.29994   0.03
  10   3   2 o  1681.678   1845.960  -65.90    1.35318   0.09
   9   3   7 o  256.495    269.021   -80.05    1.29856   0.01
   9   5   4 o  574.885    633.298    127.08   1.32599   0.03
   8   3   9 o  2255.504   2350.346  -126.54   1.28110   0.10
   6   5  10 o  1550.698   1596.230  -74.10    1.28075   0.05
  10   3   0 o  4782.269   4250.447    0.00    1.36886   0.11
  10   3   3 o  1851.349   2832.577   113.63   1.33432   0.10
   7   5   9 o  7254.218   6460.903   107.49   1.27598   0.28
   5   3  12 o  592.219    526.566    149.54   1.27591   0.02
  10   2   5 o  4794.151   4739.986   168.58   1.30527   0.21
   7   6   8 o  4259.074   3677.190  -61.10    1.27495   0.15
   9   2   8 o  3308.332   2851.255   157.33   1.27495   0.12
   8   6   6 o  2380.671   2481.943   35.74    1.28931   0.10
  10   0   6 o  67867.56   70771.27   180.00   1.28931   1.31
   7   0  11 o  64.690     54.970    -180.00   1.27392   0.00
   8   7   1 o  434.730    482.877   -94.96    1.34065   0.02
   4   0  13 o  1327.773   1435.293  -90.00    1.28684   0.02
  10   1   6 o  3835.731   4307.729   145.14   1.28410   0.15
   7   1  11 o  158.265    130.816   -37.45    1.26889   0.01
   4   1  13 o  4493.426   4778.604  -168.21   1.28165   0.16
  10   3   4 o  18336.996  15781.864 -112.86   1.30919   0.93
   8   7   0 o  883.344    771.362    180.00   1.34441   0.02
   6   0  12 o  18406.949  15316.323 -180.00   1.26586   0.19
   9   5   5 o  7333.102   7420.813  -86.29    1.29452   0.38
   8   0  10 o  3195.799   2662.510   180.00   1.26559   0.07
   8   7   2 o  1953.557   2632.933  -90.44    1.32955   0.07
   6   1  12 o  414.613    350.070    143.73   1.26092   0.01
   7   4  10 o  387.659    327.981   -88.80    1.26066   0.01
   8   1  10 o  11092.157  9378.396  -63.92    1.26066   0.47
   6   4  11 o  113.134    96.704    -144.13   1.25900   0.00
   8   7   3 o  9258.915   6956.350  -26.27    1.31165   0.26
   8   5   8 o  14514.334  13269.175  107.74   1.25513   0.67
  10   2   6 o  990.734    805.496     0.34    1.26882   0.04
   7   2  11 o  735.829    693.624    -9.35    1.25415   0.03
   4   2  13 o  2963.990   2453.406   129.09   1.26647   0.10
  10   4   0 o  15736.482  18463.467  180.00   1.32691   0.45
  10   3   5 o  3205.224   3169.098   12.76    1.27887   0.14
   9   3   8 o  162.585    170.955     6.89    1.25031   0.01
   9   4   7 o  26096.027  21763.934   2.93    1.26258   1.19
  10   4   1 o  1543.586   1531.105  -48.29    1.32330   0.09
  10   4   2 o  3383.291   2349.599   56.18    1.31262   0.21
   8   7   4 o  287.082    310.506   -31.46    1.28775   0.01
   8   4   9 o  510.582    577.969   -103.72   1.24652   0.02
   6   2  12 o  7789.412   8803.298   39.71    1.24645   0.27
   9   6   0 o  435.562    394.131   -180.00   1.32123   0.01
   8   2  10 o  6897.958   7816.986   -5.82    1.24620   0.27
   9   5   6 o  586.438    490.756    108.50   1.25894   0.03
   9   6   1 o  1267.297   919.984    168.37   1.31766   0.07
   9   6   2 o  6447.621   6117.373   96.09    1.30712   0.33
   1   1  14 o  2126.058   1715.021   110.19   1.27072   0.03
  10   4   3 o  672.159    683.524   -84.33    1.29538   0.04
   4   3  13 o  653.832    754.103    -0.41    1.24231   0.02
   5   0  13 o  927.298    1069.515  -180.00   1.24231   0.01
   9   0   9 o  815.450    943.037     0.00    1.24180   0.01
   5   4  12 o  3713.937   4297.388   92.24    1.24174   0.08
   0   0  14 o  14565.049  15478.948   0.00    1.28089   0.04
   9   6   3 o  10211.354  10476.831  14.49    1.29009   0.49
   5   1  13 o  197.679    249.896   -104.99   1.23764   0.01
   9   1   9 o  538.624    692.007    59.20    1.23714   0.02
   1   0  14 o  3027.958   2642.149  -90.00    1.27577   0.04
  10   0   7 o  3351.622   3750.494  -90.00    1.24806   0.05
   8   6   7 o  4736.649   5283.388   19.08    1.24806   0.19
   2   0  14 o  5717.910   4763.617    0.00    1.26079   0.08
  10   4   4 o  14786.060  11702.538  -4.46    1.27235   0.78
   6   5  11 o  1801.396   1867.005   43.22    1.21721   0.05
   8   7   5 o  139.247    115.784   -140.97   1.25887   0.00
   7   3  11 o  622.183    778.159    64.92    1.23068   0.02
  10   3   6 o  3121.162   3625.225  -105.71   1.24454   0.12
  10   1   7 o  1343.626   1549.974  -178.62   1.24333   0.04
   2   1  14 o  2383.611   2115.666  -101.34   1.25591   0.07
   9   6   4 o  1962.801   1597.712  -63.49    1.26734   0.09
   6   6  10 o  20860.260  23612.906 -176.61   1.22767   0.33
   5   2  13 o  315.819    333.997   -147.32   1.22395   0.01
  11   0   2 o  19.322     22.875    -90.00    1.28578   0.00
  11   0   1 o  413.701    422.043     0.00    1.29581   0.01
   7   6   9 o  22.313     23.467     82.28    1.22346   0.00
   9   2   9 o  761.262    800.064    60.80    1.22346   0.03
   6   3  12 o  124.660    131.209    166.24   1.22340   0.00
   8   3  10 o  5813.033   6098.526   48.38    1.22316   0.21
  11   1   2 o  2931.787   3252.006  -151.11   1.28061   0.12
  11   1   1 o  3839.531   3864.424  -145.79   1.29052   0.16
  11   0   3 o  4430.078   3508.455    0.00    1.26957   0.10
   3   1  14 o  95.448     130.273    -0.20    1.23235   0.00
   7   5  10 o  1001.689   1024.914   170.04   1.21871   0.04
   8   0  11 o  26.600     30.072     90.00    1.20418   0.00
   9   4   8 o  469.779    478.747   -89.25    1.21811   0.02
  10   4   5 o  78.200     91.291     163.23   1.24447   0.00
  10   2   7 o  6251.719   7538.546   137.04   1.22945   0.23
   5   5  12 o  3030.749   3403.160  -22.09    1.20159   0.02
   7   1  12 o  4398.858   4940.450  -51.30    1.20159   0.13
   2   2  14 o  11349.826  13114.834 -111.18   1.24161   0.16
  11   1   3 o  4206.145   3427.163  -98.35    1.26459   0.18
   7   4  11 o  71.795     80.517    -10.87    1.19993   0.00
   8   1  11 o  7519.875   8436.669   10.33    1.19993   0.29
  11   1   0 o  3152.866   3108.155  -180.00   1.29387   0.07
   7   7   8 o  4168.779   4606.977   40.40    1.21371   0.05
   9   6   5 o  1739.222   2053.229   41.90    1.23978   0.08
   8   7   6 o  1259.848   1363.275  -158.39   1.22608   0.04
   3   0  14 o  1548.495   2030.440   90.00    1.23695   0.02
  11   0   4 o  290.190    335.835   -90.00    1.24786   0.01
  10   5   0 o  28.830     27.955    -180.00   1.27825   0.00
   6   4  12 o  1320.644   1390.875   153.44   1.19318   0.03
   9   5   7 o  3434.811   3477.019  -74.79    1.22045   0.16
   8   4  10 o  12810.346  13429.443 -177.78   1.19296   0.45
   8   5   9 o  2497.526   2860.313   168.17   1.20592   0.10
   7   0  12 o  163.469    186.770   -90.00    1.20586   0.00
   3   2  14 o  4032.232   4078.845  -132.49   1.21883   0.12
  10   5   2 o  12527.520  10169.259 -87.11    1.26546   0.76
  11   2   2 o  4820.245   3902.528  -65.61    1.26546   0.19
  11   2   1 o  10613.231  8593.851  -18.51    1.27502   0.36
  10   5   1 o  22003.029  17981.850  174.36   1.27502   1.28
  11   1   4 o  824.579    953.421   -170.26   1.24313   0.03
   8   6   8 o  12902.832  14703.315  31.72    1.20505   0.45
  10   0   8 o  20216.902  23057.475 -180.00   1.20505   0.23
   7   2  12 o  279.534    256.837    57.81    1.18905   0.01
   9   0  10 o  12544.211  11433.272  90.00    1.18882   0.23
   5   3  13 o  462.799    520.410    135.83   1.20211   0.01
   8   8   2 o  8472.997   8955.094  -61.80    1.25083   0.12
   9   3   9 o  273.304    307.503   -87.14    1.20165   0.01
   8   2  11 o  656.805    573.437   -37.54    1.18744   0.02
  11   2   3 o  2027.613   2211.370  -127.41   1.24999   0.09
  10   5   3 o  686.209    745.718    55.05    1.24999   0.04
  10   1   8 o  719.234    811.194   -139.51   1.20079   0.02
  11   2   0 o  62.826     61.140      0.00    1.27825   0.00
  10   4   6 o  10848.794  12354.579  -8.05    1.21276   0.39
   9   1  10 o  1723.484   1407.867  -103.91   1.18473   0.06
  11   0   5 o  2494.494   2518.275  -180.00   1.22153   0.05
   9   6   6 o  2959.105   3499.047  -30.34    1.20842   0.13
   8   8   0 o  39756.66   32529.961   0.00    1.26318   0.46
  10   3   7 o  831.984    972.006    28.49    1.20731   0.03
   6   0  13 o  154.853    165.910    90.00    1.19369   0.00
   9   7   2 o  1541.907   1750.475  -154.97   1.24136   0.06
   4   0  14 o  32476.855  37271.88  -180.00   1.20574   0.45
  10   5   4 o  2716.607   3259.204  -80.27    1.22926   0.14
  11   2   4 o  353.177    423.516    24.90    1.22926   0.02
   9   7   1 o  1059.302   1142.857   155.98   1.25038   0.05
  11   1   5 o  1378.353   1392.771  -131.16   1.21709   0.05
   6   1  13 o  6541.877   6110.474   174.14   1.18955   0.15
   4   1  14 o  703.492    793.268    123.43   1.20147   0.02
  10   2   8 o  766.643    683.355     0.97    1.18827   0.03
   9   2  10 o  28.659     23.302    -43.38    1.17271   0.00
   7   6  10 o  813.346    661.953    60.17    1.17271   0.03
   9   7   0 o  1997.218   1922.802  -180.00   1.25343   0.05
   3   3  14 o  426.196    480.783   -69.36    1.19725   0.01
  11   3   2 o  3289.912   3702.993  -33.78    1.24136   0.14
  11   3   1 o  2413.048   2616.065   127.22   1.25038   0.09
   7   3  12 o  1842.426   1598.162   172.24   1.16899   0.06
   8   3  11 o  6609.894   5834.639   179.58   1.16746   0.20
   9   5   8 o  893.147    717.904   -178.28   1.18014   0.04
  11   3   3 o  5323.865   5711.329   131.04   1.22675   0.25
   9   7   3 o  1068.466   1153.616   132.62   1.22675   0.03
   8   8   4 o  331.738    345.373   -119.57   1.21584   0.00
  10   5   5 o  4909.928   5579.178   -3.67    1.20406   0.21
  11   2   5 o  141.628    160.951    59.79    1.20406   0.01
  11   0   6 o  3273.753   3318.308   90.00    1.19150   0.05
  11   3   0 o  2605.753   2515.428    0.00    1.25343   0.05
   8   7   7 o  4131.573   3990.295   153.61   1.19044   0.11
   6   2  13 o  2453.291   1970.369   119.80   1.17738   0.08
   7   5  11 o  3030.253   2674.727   120.26   1.16358   0.10
   4   2  14 o  313.442    286.289    100.91   1.18894   0.01
  11   1   6 o  213.849    183.136   -123.93   1.18738   0.01
   5   4  13 o  484.213    391.063    -3.35    1.17340   0.01
   9   4   9 o  74.014     59.834     145.22   1.17297   0.00
  11   3   4 o  2290.410   2718.773  -39.16    1.20714   0.10
   9   7   4 o  373.767    441.945   -129.94   1.20714   0.01
   6   3  13 o  3984.717   3410.380    1.25    1.15789   0.12
   6   5  12 o  1251.861   1060.372  -131.33   1.15743   0.03
   8   5  10 o  4485.111   3777.210   135.00   1.15722   0.15
   5   0  14 o  5981.316   5207.440   90.00    1.16888   0.06
   4   3  14 o  625.005    544.114   -95.96    1.16888   0.02
  10   3   8 o  4645.415   4092.171   137.34   1.16825   0.18
   1   0  15 o  45.559     45.747      0.00    1.19133   0.00
  10   6   1 o  418.413    426.034   -162.88   1.22262   0.02
   9   3  10 o  185.632    146.229   -42.20    1.15345   0.01
  10   4   7 o  423.553    338.976   -144.30   1.17824   0.02
   5   1  14 o  681.951    603.842     7.81    1.16499   0.02
  10   5   6 o  979.012    769.114   -152.58   1.17527   0.04
  11   2   6 o  585.591    458.953    158.00   1.17527   0.02
   9   6   7 o  1544.262   1224.436  -171.85   1.17426   0.06
  10   0   9 o  314.852    279.249   -90.00    1.16130   0.00
   8   6   9 o  2294.313   2033.559   48.43    1.16130   0.07
  10   6   0 o  4376.879   4594.529   180.00   1.22547   0.11
   9   7   5 o  2046.215   1592.962   130.94   1.18325   0.06
  11   3   5 o  769.044    595.123    145.15   1.18325   0.03
  10   6   2 o  8839.757   9769.195  -164.96   1.21418   0.45
   8   0  12 o  20920.740  22725.963   0.00    1.14621   0.34
  10   1   9 o  2402.289   2035.707  -67.83    1.15748   0.06
  11   4   0 o  1588.894   1555.856    0.00    1.22099   0.03
   7   0  13 o  17.559     19.827     180.00   1.14298   0.00
   2   0  15 o  4128.167   3311.491   90.00    1.17911   0.05
  10   6   3 o  75.087     86.019    -114.19   1.20050   0.00
   8   1  12 o  2314.460   2592.971  -59.29    1.14254   0.07
   7   4  12 o  608.954    681.594    137.17   1.14254   0.02
  11   4   2 o  8183.136   10155.945  81.39    1.20982   0.41
  11   4   1 o  10760.704  10357.429  178.30   1.21817   0.49
   8   4  11 o  710.362    774.055   -169.50   1.14111   0.02
   5   2  14 o  11.060      8.662    -38.51    1.15355   0.00
   8   7   8 o  551.010    428.798   -84.26    1.15294   0.01
   7   1  13 o  806.941    843.771    58.47    1.13935   0.02
   2   1  15 o  690.614    544.804   -117.60   1.17511   0.02
  11   4   3 o  602.975    715.718   -29.59    1.19629   0.03
   8   8   6 o  952.233    839.934    174.96   1.16353   0.01
   9   0  11 o  23676.619  23933.623   0.00    1.13749   0.44
  10   6   4 o  2355.381   1828.580   58.33    1.18210   0.11
   3   0  15 o  209.296    185.642   -180.00   1.15954   0.00
  11   0   7 o  8339.650   7321.781  -180.00   1.15871   0.09
   9   1  11 o  184.549    184.992   -21.98    1.13390   0.01
  10   2   9 o  438.955    484.376    57.52    1.14626   0.01
   6   4  13 o  1486.743   1510.008  -130.56   1.13217   0.03
   8   2  12 o  2198.140   2239.966   173.84   1.13174   0.07
  11   4   4 o  35.363     28.098     107.84   1.17808   0.00
  11   3   6 o  670.929    532.055     3.72    1.15589   0.02
   9   7   6 o  605.070    481.680   -99.10    1.15589   0.02
   3   1  15 o  833.319    665.295     1.46    1.15574   0.02
  11   1   7 o  1810.972   1401.464  -166.33   1.15492   0.05
   4   4  14 o  22843.143  25769.100 -16.10    1.14244   0.17
  10   4   8 o  6074.907   6842.146   12.24    1.14185   0.23
   7   2  13 o  1114.737   1151.906   24.16    1.12864   0.03
   9   4  10 o  1839.817   1901.712  -89.50    1.12802   0.06
   9   5   9 o  143.420    148.641   -109.58   1.13895   0.01
   9   6   8 o  1281.648   1305.889   86.30    1.13822   0.05
   7   7  10 o  1938.024   2005.388   45.47    1.12452   0.02
  10   6   5 o  1649.400   1481.601   54.80    1.15964   0.07
   7   6  11 o  658.444    687.062   -62.84    1.12335   0.02
   9   2  11 o  1036.166   1081.123   132.35   1.12335   0.03
   5   3  14 o  748.575    745.029    157.86   1.13521   0.02
   9   8   2 o  15793.645  12245.680 -85.91    1.17657   0.38
  11   4   5 o  823.695    646.306   -90.82    1.15584   0.03
   3   2  15 o  232.534    271.540    13.72    1.14457   0.01
  11   2   7 o  1302.167   1546.776   73.99    1.14377   0.05
  10   5   7 o  5991.655   7077.448  -20.81    1.14377   0.22
   9   8   1 o  2671.797   2011.238    5.74    1.18424   0.09
   9   8   3 o  7949.985   6975.259   173.28   1.16410   0.12
   6   6  12 o  8747.319   9495.845  -30.26    1.11781   0.11
   8   6  10 o  8087.818   8793.073    0.36    1.11762   0.24
  10   0  10 o  5592.761   6084.746    0.00    1.11762   0.07
  12   0   2 o  5650.896   4474.836   180.00   1.18057   0.09
  10   3   9 o  3009.599   3112.042  -171.50   1.12826   0.11
  11   5   1 o  216.351    172.547    26.78    1.18019   0.01
   6   0  14 o  389.667    402.562     0.00    1.12811   0.00
  12   0   1 o  227.495    199.059    90.00    1.18832   0.00
   9   8   0 o   7.144      5.836      0.00    1.18683   0.00
   8   7   9 o  1119.827   1221.215   67.90    1.11445   0.02
   8   3  12 o  1373.919   1496.613   79.61    1.11440   0.04
   6   2  14 o  4719.508   5147.444   139.78   1.11431   0.14
  10   1  10 o  267.531    292.058   -78.61    1.11422   0.01
   9   7   7 o  2813.270   2892.204   115.77   1.12589   0.09
  12   0   3 o  325.686    299.301   -90.00    1.16798   0.00
  12   1   2 o  515.222    395.817   -158.87   1.17657   0.02
   6   1  14 o  778.498    804.732   -85.53    1.12462   0.02
  12   1   1 o  349.844    256.487    111.68   1.18424   0.01
  11   0   8 o  7975.394   8254.551   90.00    1.12405   0.07
   7   3  13 o  1050.521   1167.172   31.99    1.11144   0.03
   7   5  12 o  1102.182   1225.432   164.72   1.11103   0.03
   5   4  14 o  1356.201   1512.996  -88.15    1.11094   0.01
  11   5   0 o  5519.264   4105.114    0.00    1.18276   0.13
  10   6   6 o  7599.142   7553.932    9.01    1.13386   0.30
   4   0  15 o  10639.247  10634.094 -90.00    1.13371   0.12
  12   1   3 o  672.993    587.336   -150.79   1.16410   0.02
   8   5  11 o  2367.717   2632.227   177.26   1.10972   0.07
  11   5   2 o  5010.299   3884.661   23.31    1.17260   0.26
  11   1   8 o  161.054    173.785    26.89    1.12059   0.00
   4   2  15 o  2901.501   3151.065   100.41   1.11971   0.08
  12   1   0 o  1412.132   1140.274    0.00    1.18683   0.02
  11   4   6 o  616.371    638.186   -47.87    1.13030   0.02
   4   1  15 o  1918.542   1978.759  -149.35   1.13016   0.05
  10   7   2 o  1870.774   1698.371  -136.21   1.16093   0.07
  12   0   4 o  5387.859   4163.144  -180.00   1.15102   0.08
   9   3  11 o  27.953     29.548    -25.82    1.10639   0.00
  11   5   3 o  1316.394   1203.713   43.46    1.16026   0.07
  12   0   0 o  6709.938   6721.826    0.00    1.19094   0.06
  10   7   1 o  5334.374   4879.261  -30.40    1.16830   0.22
  10   7   3 o  3022.293   2902.252  -109.77   1.14896   0.11
  10   4   9 o  114.234    114.702    173.52   1.10442   0.00
  10   2  10 o  31.564     31.488     142.34   1.10420   0.00
   9   8   4 o  2455.105   2739.503  -67.06    1.14730   0.03
  12   1   4 o  2952.376   3370.452  -151.46   1.14730   0.10
  11   3   7 o  136.341    140.056    61.13    1.12589   0.00
  12   2   2 o  828.826    729.286     1.24    1.16478   0.03
  12   2   1 o  726.669    560.415   -72.90    1.17222   0.02
   6   5  13 o  966.020    904.262    33.45    1.10149   0.01
   9   6   9 o  1256.489   1159.808  -110.28   1.10114   0.04
  10   7   0 o  1784.542   1468.004   180.00   1.17079   0.04
  11   5   4 o  499.251    626.760     3.06    1.14363   0.02
  12   2   3 o  37.559     25.969    -92.88    1.15269   0.00
  11   2   8 o  263.182    297.491   -59.21    1.11040   0.01
  10   5   8 o  1375.037   1551.337   32.04    1.11040   0.05
   6   3  14 o  3954.778   3703.227   130.16   1.09775   0.11
   9   5  10 o  1118.803   1048.288   175.13   1.09766   0.04
  12   2   0 o  14988.150  11191.606 -180.00   1.17474   0.20
  12   0   5 o  1135.682   1181.191  -90.00    1.13026   0.01
  10   6   7 o  5410.464   5630.063   66.04    1.10549   0.20
  12   1   5 o  1562.667   1606.734  -92.36    1.12674   0.05
   9   8   5 o  2781.779   2862.353   169.73   1.12674   0.05
  12   2   4 o  2822.470   2725.543  -10.12    1.13637   0.11
   8   0  13 o  93.610     95.137     90.00    1.09181   0.00
   4   3  15 o  2701.443   2596.790   -7.67    1.10291   0.07
   5   0  15 o  707.306    679.870   -180.00   1.10291   0.01
   8   4  12 o  582.182    585.163    139.93   1.09142   0.01
  11   4   7 o  219.361    205.184    19.80    1.10220   0.01
  11   5   5 o  1469.993   1526.765   69.05    1.12325   0.05
  10   7   4 o  4978.455   5006.536  -84.51    1.13280   0.18
   8   8   8 o  5854.660   5321.609  -170.56   1.10048   0.04
   8   1  13 o  7385.960   6622.645   22.82    1.08863   0.19
   7   4  13 o  1253.738   1124.100   158.13   1.08863   0.03
  11   0   9 o  143.675    126.735   -180.00   1.08829   0.00
   9   0  12 o  138.843    122.253    90.00    1.08825   0.00
   5   1  15 o  396.504    360.556   -175.66   1.09964   0.01
  10   3  10 o  856.588    747.624    105.20   1.08808   0.03
   0   0  16 o  949.176    1025.374   180.00   1.12078   0.00
  12   3   2 o  75.144     99.608    -80.13    1.14591   0.00
  11   1   9 o  52.406     39.558    -175.23   1.08515   0.00
   9   1  12 o  1105.011   848.365   -97.50    1.08511   0.03
   7   0  14 o  1426.171   1088.745   90.00    1.08502   0.01
   1   0  16 o  4845.995   5302.009  -90.00    1.11735   0.06
  12   3   1 o  1312.813   867.008   -72.40    1.15299   0.04
  12   0   6 o  4514.562   4859.281    0.00    1.10634   0.05
   9   4  11 o  3237.693   2399.459  -166.95   1.08388   0.08
  12   2   5 o  238.586    259.804    24.79    1.11638   0.01
  12   3   3 o  1699.635   1653.291  -50.56    1.13439   0.07
   9   7   8 o  257.579    270.910   -20.02    1.09401   0.01
  11   3   8 o  17.012     17.973     136.83   1.09401   0.00
   5   5  14 o   5.727      4.274     24.65    1.08191   0.00
   7   1  14 o  359.448    268.012   -61.00    1.08191   0.01
   1   1  16 o  3980.785   4365.616  -165.04   1.11395   0.05
   9   8   6 o  154.311    147.885    -4.70    1.10304   0.00
  12   1   6 o  2179.911   2084.765  -21.63    1.10304   0.06
  10   7   5 o  16.535     18.419    -79.51    1.11299   0.00
  12   3   0 o  700.206    508.168   -180.00   1.15538   0.01
  11   6   2 o  4763.544   4910.649  -97.32    1.13145   0.22
   8   2  13 o  2595.536   2142.571  -43.92    1.07928   0.07
   5   2  15 o  1577.568   1515.559   11.70    1.09000   0.05
  11   6   1 o  1142.225   1133.608   26.91    1.13827   0.05
  11   6   3 o  4133.851   4561.958   150.59   1.12036   0.19
  11   5   6 o  1887.351   1670.746  -165.17   1.09977   0.05
  12   3   4 o  913.595    1021.941   51.78    1.11882   0.04
  11   2   9 o  4381.020   4066.808   155.51   1.07589   0.13
  10   5   9 o  4339.785   4027.817   -8.23    1.07589   0.15
   9   2  12 o  2200.948   2043.071   39.96    1.07584   0.06
   7   6  12 o  1630.084   1513.035   155.58   1.07584   0.05
   6   4  14 o  5063.251   4711.054   23.60    1.07576   0.08
   8   7  10 o  1770.496   1651.604   134.60   1.07568   0.04
   8   5  12 o  318.647    344.908     7.31    1.06385   0.01
   2   0  16 o  896.866    983.290     0.00    1.10724   0.01
   8   6  11 o  72.460     69.556     123.62   1.07465   0.00
  10   0  11 o  1734.854   1665.643   90.00    1.07465   0.03
   5   3  15 o  1311.160   1265.453   105.73   1.07449   0.03
  11   6   0 o  161.608    179.968    180.00   1.14057   0.00
   7   5  13 o  557.556    618.914   -156.59   1.06127   0.01
   7   2  14 o  1017.343   1037.237  -22.63    1.07273   0.03
   2   2  16 o  3349.505   3545.383  -148.19   1.09418   0.04
   9   3  12 o  875.488    976.144   -37.08    1.06092   0.02
   2   1  16 o  1433.454   1417.702  -31.60    1.10393   0.03
  10   1  11 o  1786.122   1886.052  -21.19    1.07163   0.05
  12   2   6 o  739.259    817.330    116.33   1.09332   0.02
   3   0  16 o  3038.691   3098.154   90.00    1.09099   0.03
  12   0   7 o  794.122    623.297    90.00    1.07995   0.01
  10   7   6 o  4970.958   4910.388  -24.39    1.09013   0.18
   6   0  15 o  311.501    344.778    90.00    1.06847   0.00
  12   3   5 o  324.540    282.607   -162.94   1.09973   0.01
  10   4  10 o  319.509    349.110    173.97   1.06665   0.01
   3   1  16 o  1506.317   1294.949   40.28    1.08782   0.03
   9   8   7 o  270.144    244.379    63.88    1.07688   0.01
  12   1   7 o  500.056    453.007    34.20    1.07688   0.01
   6   1  15 o  260.912    282.387    159.05   1.06549   0.00
   9   9   0 o  4303.316   4482.136    0.00    1.12283   0.04
  11   6   4 o  318.288    333.061    91.67    1.10536   0.01
   9   9   2 o  4286.302   4687.852  -19.61    1.11413   0.04
  12   4   0 o  1381.450   1467.454    0.00    1.12983   0.02
  10   6   8 o  2641.953   2495.450  -45.10    1.07527   0.09
   8   3  13 o  2257.858   2441.245   164.93   1.06421   0.06
   9   6  10 o  1625.715   1761.751  -116.27   1.06369   0.04
  12   4   2 o  654.217    717.052   -168.50   1.12096   0.03
  11   5   7 o  495.619    489.865    72.66    1.07383   0.01
  10   2  11 o  3904.902   4270.253  -39.94    1.06270   0.10
  12   4   1 o  427.885    446.487    70.00    1.12759   0.02
  11   4   8 o  220.508    231.002    168.76   1.07224   0.01
   9   7   9 o  1740.352   1947.701   106.70   1.06096   0.03
  11   3   9 o  353.466    395.900    90.98    1.06096   0.01
  12   4   3 o  31.332     37.172     -3.92    1.11017   0.00
  10   8   0 o  4172.635   4517.981    0.00    1.11596   0.08
   4   0  16 o  1652.934   1845.927  -180.00   1.06939   0.01
  10   8   2 o  5000.603   5697.385   19.78    1.10742   0.13
   7   3  14 o  976.751    1119.730   155.79   1.05793   0.03
   3   2  16 o  3454.063   2938.953  -168.43   1.07849   0.08
  12   2   7 o  1817.510   2041.646  -60.27    1.06782   0.06
   9   5  11 o  377.694    435.180    102.70   1.05687   0.01
  10   8   3 o  1735.693   1617.383  -92.00    1.09701   0.04
  10   8   1 o  3117.436   3428.815  -160.67   1.11381   0.10
   6   2  15 o  565.428    652.958    127.14   1.05672   0.02
  12   3   6 o  1352.895   1197.458   169.88   1.07766   0.04
  11   6   5 o  112.987    91.411     91.95    1.08693   0.00
   4   1  16 o  1021.040   1115.836  -147.91   1.06641   0.02
  12   4   4 o  1113.987   1148.742   105.66   1.09557   0.04
   8   4  13 o  893.388    916.953    137.66   1.04414   0.02
  10   7   7 o  337.984    364.245    84.76    1.06485   0.01
   5   4  15 o  1089.257   1221.895   161.01   1.05384   0.01
   3   3  16 o  820.694    890.989   -85.25    1.06346   0.01
   9   0  13 o  12481.619  12663.208   0.00    1.04137   0.18
   9   4  12 o  3879.812   3921.029  -84.62    1.04103   0.08
  11   0  10 o  204.889    221.775    90.00    1.05210   0.00
   8   0  14 o  388.724    392.481     0.00    1.04095   0.00
   9   1  13 o  418.193    408.693   -112.48   1.03861   0.01
   9   9   4 o  1619.625   1524.594  -50.33    1.08919   0.01
   6   5  14 o  480.650    493.750    76.97    1.04934   0.00
   7   7  12 o  88.037     85.646     137.56   1.03828   0.00
  11   1  10 o  2173.949   2224.206   62.84    1.04926   0.05
   7   4  14 o  1663.774   1616.969   108.44   1.03820   0.03
   8   1  14 o  821.946    798.828    96.76    1.03820   0.02
  10   3  11 o  3522.414   3583.231  -134.09   1.04831   0.09
  12   4   5 o  156.715    139.526   -117.05   1.07762   0.00
   4   2  16 o  2322.399   2695.903    5.51    1.05762   0.06
  11   6   6 o  119.012    128.804    153.42   1.06561   0.00
  10   6   9 o  788.492    813.117    83.76    1.04384   0.02
  10   8   4 o  7281.263   4808.700  -158.94   1.08292   0.15
  10   0  12 o  3924.279   3505.742    0.00    1.03284   0.06
   8   6  12 o  9038.604   8084.280  -165.20   1.03284   0.26
  12   5   2 o  2343.296   2621.597   87.97    1.09116   0.10
  12   3   7 o  623.194    699.168   -170.17   1.05322   0.02
   6   3  15 o  300.092    308.027   -107.40   1.04256   0.01
  12   5   3 o  195.765    134.875    129.23   1.08120   0.01
  12   5   1 o  1455.154   1309.768    9.85    1.09727   0.06
   7   6  13 o  994.048    896.715   -37.42    1.03048   0.02
   9   2  13 o  646.259    582.594    170.58   1.03048   0.02
  12   0   8 o  2383.494   2558.537    0.00    1.05172   0.02
  11   4   9 o  9846.875   9992.479   15.42    1.04107   0.33
  10   1  12 o  212.506    192.192   -55.79    1.03015   0.01
   8   2  14 o  1728.865   1566.920   -7.35    1.03008   0.04
  11   2  10 o  1694.408   1712.365   50.46    1.04088   0.05
  10   5  10 o  6327.606   6392.121   87.64    1.04088   0.19
  11   7   2 o  996.883    863.917    158.71   1.08799   0.04
  10   4  11 o  455.808    419.971    17.45    1.02911   0.01
  11   7   3 o  550.508    483.903    29.03    1.07812   0.02
  11   7   1 o  2144.415   2518.740   -1.37    1.09405   0.09
  12   1   8 o  187.627    190.041    34.31    1.04888   0.00
   9   8   8 o  2637.213   2676.852   23.92    1.04888   0.04
  12   5   0 o  481.971    397.728     0.00    1.09933   0.01
   8   7  11 o  21.446     20.539     42.27    1.03721   0.00
   9   6  11 o  7555.757   7497.771  -168.94   1.02645   0.20
  12   4   6 o  75.935     90.298     58.11    1.05683   0.00
  13   0   2 o  486.841    555.240   -90.00    1.09116   0.01
  10   8   5 o  2929.071   3164.712  -48.70    1.06557   0.07
  11   5   8 o  4152.120   4224.137   171.04   1.04607   0.12
  13   0   1 o  411.591    366.305    180.00   1.09727   0.00
  11   7   0 o  583.179    581.309   -180.00   1.09609   0.01
  13   0   3 o  2789.443   1895.239   180.00   1.08120   0.03
  13   1   2 o  1742.091   1510.665   -8.01    1.08799   0.04
   5   0  16 o  17975.939  18548.848  90.00    1.04343   0.13
   4   3  16 o  483.695    499.089    22.69    1.04343   0.01
  10   2  12 o  10014.944  9872.431   -0.59    1.02222   0.23
  13   1   1 o  1146.701   1407.901   20.73    1.09405   0.03
   8   8  10 o  3584.501   3184.667   158.22   1.03270   0.02
   5   2  16 o  3731.065   3302.080  -46.20    1.03248   0.09
  13   1   3 o  809.203    718.499    78.65    1.07812   0.02
  11   6   7 o  1401.854   1447.270  -52.29    1.04196   0.04
   7   0  15 o  1560.881   1389.296    0.00    1.03164   0.01
   9   9   6 o  353.586    372.811   -175.58   1.05110   0.00
   8   5  13 o  687.577    649.490    172.85   1.01993   0.02
   5   1  16 o  1349.792   1360.364  -15.55    1.04066   0.03
  12   2   8 o  2169.516   2186.460   88.85    1.04051   0.06
   6   6  14 o  4130.583   3889.004  -71.27    1.01954   0.02
  12   5   4 o  705.669    807.661    141.16   1.06770   0.02
  13   0   4 o  589.247    677.972    90.00    1.06770   0.01
   7   1  15 o  1632.859   1510.003   87.25    1.02896   0.03
  13   1   0 o  1355.252   1355.339    0.00    1.09609   0.02
   9   3  13 o  77.547     73.100      6.06    1.01734   0.00
  10   7   8 o  383.029    369.957    70.37    1.03776   0.01
   9   5  12 o  224.792    212.257    102.06   1.01703   0.01
   8   3  14 o  911.661    861.968   -104.98   1.01696   0.02
  11   3  10 o  119.904    116.038   -168.75   1.02734   0.00
   9   7  10 o  1066.772   1032.105   18.52    1.02734   0.02
  13   1   4 o  969.905    1030.286  -43.04    1.06473   0.02
  11   7   4 o  2089.346   2231.052   125.94   1.06473   0.08
  11   0  11 o  1080.228   1030.053  -180.00   1.01602   0.01
  10   8   6 o  17793.492  18195.104 -178.35   1.04546   0.47
  13   2   2 o  8888.735   7713.173   125.06   1.07866   0.25
   7   5  14 o  745.648    746.573   -137.36   1.01439   0.01
   4   4  16 o  2076.298   2133.551  -176.02   1.02449   0.02
  13   2   1 o  8894.890   5726.370   177.71   1.08456   0.22
   2   0  17 o  1168.839   1212.769   90.00    1.04354   0.01
  11   1  11 o  116.157    121.071    81.76    1.01346   0.00
   6   4  15 o  1423.078   1444.880  -108.69   1.02367   0.02
  12   4   7 o  1898.673   1679.021   95.93    1.03375   0.05
  13   2   3 o  365.129    438.798    -5.65    1.06903   0.01
   1   0  17 o  6580.007   7125.599  -180.00   1.05199   0.08
  12   5   5 o  246.823    259.388    73.06    1.05106   0.01
  13   0   5 o  4391.211   4610.379    0.00    1.05106   0.04
  12   0   9 o  607.126    600.983    90.00    1.02225   0.00
   2   1  17 o  126.441    128.092    91.42    1.04077   0.00
   7   2  15 o  1936.483   1857.610   150.49   1.02105   0.05
  13   2   0 o  3793.768   2936.744  -180.00   1.08655   0.04
  10   3  12 o  1078.253   1152.129   16.03    1.00939   0.02
  13   1   5 o  946.435    940.557    50.49    1.04823   0.02
  11   7   5 o  640.695    639.635    80.82    1.04823   0.02
  12   1   9 o  767.361    714.984    68.94    1.01965   0.01
   9   8   9 o  434.128    405.519    63.56    1.01965   0.00
   5   3  16 o  629.593    588.432    99.95    1.01926   0.01
  13   2   4 o  90.047     109.522    128.45   1.05598   0.00
   7   3  15 o  994.011    1016.505  -32.26    1.00827   0.03
  12   3   8 o  583.254    573.385   -81.52    1.02699   0.02
  11   5   9 o  143.797    134.468   -34.75    1.01706   0.00
  11   2  11 o  31.204     29.599    -175.18   1.00590   0.00
  10   5  11 o  670.061    636.137    153.56   1.00590   0.02
   6   0  16 o  1525.237   1543.423    0.00    1.01412   0.01
  10   8   7 o  1788.035   1829.183  -48.80    1.02310   0.05
  12   6   2 o  1695.657   2051.698   33.29    1.05777   0.07
  13   0   6 o  2786.971   2392.245  -90.00    1.03175   0.02
  12   5   6 o  190.817    164.454    49.81    1.03175   0.00
  13   3   0 o  17.590     20.780     180.00   1.07118   0.00
  12   6   3 o  207.576    204.951   -73.31    1.04869   0.01
  12   2   9 o  14.775     16.600    -71.11    1.01195   0.00
  13   3   2 o  1105.659   1173.581  -137.04   1.06361   0.04
  10   6  10 o  495.419    550.861    160.29   1.01178   0.01
  13   2   5 o  191.852    191.433   -159.08   1.03987   0.01
   6   1  16 o  1578.002   1757.322  -81.79    1.01157   0.03
  12   6   1 o  804.147    860.603   -47.20    1.06334   0.03
   6   5  15 o  1203.039   1143.823  -17.20    1.00082   0.00
   3   0  17 o  3808.123   3406.918    0.00    1.02990   0.03
  13   3   1 o  238.676    294.553   -100.60   1.06927   0.01
  10   9   0 o  172.554    190.899    180.00   1.06226   0.00
  10   9   2 o  3162.534   3797.195   91.03    1.05489   0.05
  13   3   3 o  982.172    1169.728  -49.68    1.05438   0.03
  13   1   6 o  218.206    196.977    106.71   1.02907   0.00
  11   7   6 o  463.067    419.652    97.83    1.02907   0.02
   9   4  13 o  969.762    922.781   -177.68   0.99976   0.02
   3   2  17 o  330.875    307.043    119.04   1.01937   0.01
   8   7  12 o  4164.671   3962.219   178.68   0.99947   0.12
   8   4  14 o  5640.638   5367.245   164.85   0.99940   0.12
  10   9   3 o  1872.267   1901.637  -54.27    1.04588   0.02
  10   7   9 o  1659.916   1798.172   161.57   1.00942   0.04
  11   4  10 o  4658.512   4989.105  -96.54    1.00925   0.14
  10   9   1 o  146.792    169.406   -97.59    1.06040   0.00
   3   1  17 o  1133.014   1102.638   16.43    1.02724   0.02
  12   6   0 o  418.106    441.857     0.00    1.06521   0.01
   9   0  14 o  2318.697   2221.891  -90.00    0.99697   0.03
  11   6   8 o  4074.734   3813.109  -77.67    1.01654   0.12
  10   9   4 o  12866.820  11175.041  82.42    1.03364   0.11
  13   3   4 o  988.965    1038.437  -174.79   1.04185   0.04
   9   1  14 o  897.425    877.347   -150.52   0.99455   0.02
   6   2  16 o  1921.816   1797.450   152.18   1.00406   0.05
  13   2   6 o  3268.019   3094.496   11.24    1.02116   0.09
   4   0  17 o  5315.515   6021.827  -90.00    1.01168   0.03
   5   4  16 o  2026.470   1921.046  -86.06    1.00159   0.03
  12   6   4 o  2212.005   2088.676  -129.65   1.03636   0.08
  12   5   7 o  255.728    293.851    111.31   1.01024   0.01
  13   0   7 o  5899.484   6824.637    0.00    1.01024   0.04
  11   8   2 o  333.129    352.694    152.77   1.04358   0.01
  13   4   2 o  2197.631   2341.951  -106.16   1.04358   0.07
  11   8   0 o  424.451    436.887   -180.00   1.05072   0.01
   4   1  17 o  861.500    924.428   -33.60    1.00915   0.01
  12   3   9 o  994.845    944.964    61.54    0.99950   0.03
  12   4   8 o  412.188    438.833   -100.67   1.00891   0.01
  13   4   3 o  491.920    440.889   -113.73   1.03485   0.02
  11   8   3 o  3904.080   3507.480   18.79    1.03485   0.10
  13   3   5 o  222.113    228.256   -61.03    1.02638   0.01
  13   4   1 o  12796.164  12471.238  -9.74    1.04892   0.39
  11   8   1 o  950.151    934.271    19.50    1.04892   0.03
  11   7   7 o  249.721    248.828    80.50    1.00773   0.01
  13   1   7 o  493.949    491.386    72.95    1.00773   0.01
  11   8   4 o  1833.934   1909.996  -120.06   1.02300   0.05
   9   9   8 o  2100.784   1951.831   162.75   1.00392   0.01
  13   4   0 o  1890.747   1941.221  -180.00   1.05072   0.03
  12   6   5 o  586.609    553.866   -170.19   1.02112   0.02
   4   2  17 o  1442.202   1366.905   50.62    1.00169   0.03
  10   9   5 o  3556.079   3247.355  -147.00   1.01853   0.05
  13   2   7 o  84.230     80.184     155.41   1.00029   0.00
  13   3   6 o  438.490    454.675    111.40   1.00837   0.01
  10   8   8 o  4767.145   4525.650   164.76   0.99900   0.10
  13   4   4 o  231.661    243.184     6.85    1.02300   0.01
  12   6   6 o  3544.875   3282.632  -139.33   1.00339   0.08
  10   9   6 o  2407.900   2291.815   99.53    1.00092   0.04
  13   4   5 o  207.873    215.100   -175.72   1.00834   0.01
  11   8   5 o  1142.462   1181.718   168.69   1.00834   0.03
  12   7   2 o  118.907    116.950   -22.33    1.02201   0.00
  12   7   0 o  18.808     16.838      0.00    1.02871   0.00
  12   7   3 o  2180.205   2254.121   81.42    1.01381   0.08
  12   7   1 o  832.202    831.077    114.27   1.02702   0.03
  13   5   2 o  2594.635   2306.447  -163.23   1.01940   0.09
  13   5   3 o  148.433    193.139   -169.81   1.01127   0.00
  12   7   4 o  1129.406   1055.394   77.68    1.00265   0.04
  13   5   1 o  15.075     17.417     85.73    1.02438   0.00
  13   5   4 o  1207.954   1151.452  -165.00   1.00019   0.03
  13   5   0 o  2385.104   2594.403   180.00   1.02606   0.04
   0   0  18 o   2.617      2.520      0.00    0.99625   0.00
  14   0   2 o  2406.523   2331.616   180.00   1.01425   0.02
  14   0   1 o   4.461      3.920     90.00    1.01916   0.00
  14   0   3 o  3171.666   2837.755   90.00    1.00624   0.02
  14   1   2 o  651.328    890.930   -103.41   1.01171   0.01
  10  10   2 o  1530.245   1376.002  -47.65    1.00419   0.01
  10  10   0 o  14178.844  18408.414   0.00    1.01055   0.09
  14   1   1 o  3220.753   2845.244  -156.39   1.01658   0.05
  14   1   3 o  431.985    390.138   -94.83    1.00375   0.01
  14   0   0 o  41387.52   36772.04   180.00   1.02081   0.15
  14   0   4 o  5609.876   5529.317    0.00    0.99533   0.04
  14   1   0 o  2880.255   2573.104  -180.00   1.01821   0.02
  11   9   2 o  601.943    567.797    124.06   0.99927   0.01
  11   9   0 o  139.706    123.720   -180.00   1.00553   0.00
  14   2   2 o   0.939      0.834     49.19    1.00419   0.00
  11   9   1 o  349.655    314.744   -106.63   1.00396   0.01
  14   2   1 o  3238.335   3627.390   150.16   1.00895   0.07
  14   2   3 o  223.671    214.565    176.16   0.99641   0.01
  14   2   0 o  2776.021   3883.386    0.00    1.01055   0.03
  13   6   1 o  346.869    331.003    42.19    0.99660   0.01
  14   3   0 o  368.047    340.974     0.00    0.99815   0.00
  13   6   0 o  2405.592   2239.331    0.00    0.99815   0.04
  14   3   1 o  1962.697   1870.246   -8.23    0.99660   0.05
_reflns_number_total                   1113
_reflns_limit_h_min                    0
_reflns_limit_h_max                    14
_reflns_limit_k_min                    0
_reflns_limit_k_max                    10
_reflns_limit_l_min                    0
_reflns_limit_l_max                    18
_reflns_d_resolution_high              0.995
_reflns_d_resolution_low               11.176
#--eof--eof--eof--eof--eof--eof--eof--eof--eof--eof--eof--eof--eof--eof--eof--#
