



 
#*********************************************************************************
#
# Crystallographic Information File for Franzinite 
#
# Reference : 
#   Ballirano, P., Bonaccorsi, E., Maras, A. and Merlino, S.
#   Can. Mineral., 38, 657-668, (2000)
#
#
# CIF downloaded from the IZA-SC Database of Zeolite Structures
# Ch. Baerlocher and L.B. McCusker,
# Database of Zeolite Structures: http://www.iza-structure.org/databases/ 
#
#**********************************************************************************


data_Franzinite
_chemical_name_systematic 'Franzinite'

_cell_length_a      12.916
_cell_length_b      12.916
_cell_length_c      26.543 
_cell_angle_alpha   90 
_cell_angle_beta    90 
_cell_angle_gamma   120
_cell_formula_units_Z   1

_space_group.name_H-M_ref   'P 3 2 1'
_symmetry_space_group_name_H-M   'P 3 2 1'
_symmetry_space_group_name_Hall  'P 3 2"'
_space_group.IT_number  150 

 
 loop_
_atom_site_label
_atom_site_type_symbol
_atom_site_fract_x
_atom_site_fract_y
_atom_site_fract_z
_atom_site_B_iso_or_equiv
_atom_site_occupancy
Si1  Si  0.5834  0.6684  0.9018  1.25  1
Al1  Al  0.419  0.3332  0.0978  1.07  1
Al2  Al  0.5866  0.6658  0.1963  1.5  1
Si2  Si  0.4158  0.3323  0.8038  0.96  1
Al3  Al  0.5927  0.677  0.6028  0.95  1
Si3  Si  0.4162  0.3365  0.3964  1.1  1
Al4  Al  0.7511  0.7511  0  1.42  1
Si4  Si  0.2472  0.2472  0  1.03  1
Si5  Si  0.7486  0.7495  0.2976  1.03  1
Al5  Al  0.254  0.2515  0.7026  1.18  1
Si6  Si  0.7485  0.7485  0.5  1.11  1
Al6  Al  0.2544  0.2544  0.5  0.95  1
O1  O  0.4462  0.218  0.1051  5.13  1
O2  O  0.875  0.7478  0.2876  2.21  1
O3  O  0.2425  0.1159  0.5098  1.97  1
O4  O  0.322  0.0005  0.3468  2.21  1
O5  O  0.671  0.002  0.6482  1.97  1
O6  O  0.659  0.676  0.547  1.74  1
O7  O  0.353  0.3302  0.4504  1.74  1
O8  O  0.669  0.65  0.1495  3.87  1
O9  O  0.348  0.351  0.8495  4.74  1
O10  O  0.4501  0.234  0.3901  1.74  1
O11  O  0.666  0.686  0.9481  5.68  1
O12  O  0.327  0.307  0.0468  6.63  1
O13  O  0.442  0.549  0.1995  2.76  1
O14  O  0.541  0.0786  0.394  2.05  1
O15  O  0.656  0.673  0.2534  2.13  1
O16  O  0.344  0.32  0.7537  4.18  1
O17  O  0.888  0.7821  0.6994  2.37  1
O18  O  0.4275  0.22  0.8161  2.92  1
O19  O  0.9157  0.454  0.0863  5.13  1
O20  O  0.12  0.233  0.0106  5.84  1
S1  S  0.373  0.676  0.0546  5.05  1
S2  S  0.343  0.706  0.7415  6.16  1
S3  S  0.025  0.023  0.1561  6.32  1
S4  S  0.3333  0.6667  0.3199  2.31  1
S5  S  0.3333  0.6667  0.4884  1.9  1
H2O1  O2-(H2O)  0.009  0.039  0.604  8.69  1
Ca1  Ca  0.503  0.503  0  3.71  0.42
Ca2  Ca  0.7815  0.5649  0.596  2.28  0.91
Ca3  Ca  0.4909  0.514  0.3017  3.13  0.66
Ca31  Ca  0  0  0.7477  2.68  0.18
Ca32  Ca  0  0  0.7009  2.68  0.22
Ca4  Ca  0.5015  0.5015  0.5  2.24  0.81
Ca41  Ca  0  0  0  4.74  0.07
Ca5  Ca  0.849  0.6967  0.8973  3.24  0.29
Ca6  Ca  0.834  0.6655  0.2001  2.68  0.33
Ca61  Ca  0.772  0.556  0.2169  2.68  0.15
Ca1  Ca  0.503  0.503  0  3.71  0.42
Ca11  Ca  0.45  0.544  0.015  3.71  0.14
Ca2  Ca  0.7815  0.5649  0.596  2.28  0.91
Ca3  Ca  0.4909  0.514  0.3017  3.13  0.66
Ca4  Ca  0.5015  0.5015  0.5  2.24  0.81
Ca5  Ca  0.849  0.6967  0.8973  3.24  0.29
Ca51  Ca  0.806  0.586  0.9164  3.24  0.12
Ca52  Ca  0.873  0.76  0.887  3.24  0.15
Ca53  Ca  0.829  0.65  0.903  3.24  0.11
Ca6  Ca  0.834  0.6655  0.2001  2.68  0.33
Ca61  Ca  0.772  0.556  0.2169  2.68  0.15
Ca62  Ca  0.873  0.726  0.1849  2.68  0.13
Ca63  Ca  0.795  0.605  0.2139  2.68  0.12
O21  O  0.617  0.32  0.9054  9.47  1
O22  O  0.375  0.603  0.0207  12.63  1
O23  O  0.488  0.736  0.076  12.63  1
O24  O  0.401  0.786  0.7078  7.9  1
O25  O  0.73  0.47  0.225  5.53  1
O26  O  0.728  0.399  0.229  9.47  1
O27  O  0.046  0.126  0.131  6.32  1
O28  O  0.113  0.078  0.184  14.21  1
O29  O  0.045  0.042  0.113  10.26  1
O30  O  0.3333  0.6667  0.265  7.34  1
O31  O  0.396  0.789  0.339  4.18  1
O32  O  0.3333  0.6667  0.5433  4.58  1
O33  O  0.397  0.791  0.4698  3.32  1

# End of data for Franzinite


			
	