



 
#*********************************************************************************
#
# Crystallographic Information File for Cs-Aluminosilicate 
#
# Reference : 
#   Araki, T.
#   Z. Kristallogr., 152, 207-213, (1980)
#
#
# CIF downloaded from the IZA-SC Database of Zeolite Structures
# Ch. Baerlocher and L.B. McCusker,
# Database of Zeolite Structures: http://www.iza-structure.org/databases/ 
#
#**********************************************************************************


data_Cs-Aluminosilicate
_chemical_name_systematic 'Cs-Aluminosilicate'

_cell_length_a      16.776
_cell_length_b      13.828
_cell_length_c      5.021 
_cell_angle_alpha   90 
_cell_angle_beta    90 
_cell_angle_gamma   90
_cell_formula_units_Z   1

_space_group.name_H-M_ref   'A m a 2'
_symmetry_space_group_name_H-M   'A m a 2'
_symmetry_space_group_name_Hall  'A 2 -2a'
_space_group.IT_number  40 

 
 loop_
_atom_site_label
_atom_site_type_symbol
_atom_site_fract_x
_atom_site_fract_y
_atom_site_fract_z
_atom_site_B_iso_or_equiv
_atom_site_occupancy
CS  Cs  0.25  0.20406  0  4.665  0.814
SI1  Si  0.05281  0.74134  0.04651  1.469  1
SI2  Si  0.15709  0.42622  0.41971  1.404  1
SI3  Si  0.08952  0.02677  0.40524  1.444  1
O1  O  0  0  0.31644  2.851  1
O2  O  0.25  0.41029  0.35466  4.888  1
O3  O  0.12235  0.32339  0.51936  3.97  1
O4  O  0.09931  0.14024  0.48097  3.014  1
O5  O  0.02323  0.73969  0.3555  2.718  1
O6  O  0.11123  0.45939  0.15344  4.334  1
O7  O  0.14838  0.00661  0.15333  2.614  1

# End of data for Cs-Aluminosilicate


			
	