



 
#*********************************************************************************
#
# Crystallographic Information File for ZK5, dehydrated 
#
# Reference : 
#   Parise, J.B., Shannon, R.D., Prince, E. and Cox, D.E.
#   Z. Kristallogr., 165, 175-190, (1983)
#
#
# CIF downloaded from the IZA-SC Database of Zeolite Structures
# Ch. Baerlocher and L.B. McCusker,
# Database of Zeolite Structures: http://www.iza-structure.org/databases/ 
#
#**********************************************************************************


data_ZK5_dehydrated
_chemical_name_systematic 'ZK5, dehydrated'

_cell_length_a      18.671
_cell_length_b      18.671
_cell_length_c      18.671 
_cell_angle_alpha   90 
_cell_angle_beta    90 
_cell_angle_gamma   90
_cell_formula_units_Z   1

_space_group.name_H-M_ref   'I m -3 m'
_symmetry_space_group_name_H-M   'I m -3 m'
_symmetry_space_group_name_Hall  '-I 4 2 3'
_space_group.IT_number  229 

 
 loop_
_atom_site_label
_atom_site_type_symbol
_atom_site_fract_x
_atom_site_fract_y
_atom_site_fract_z
_atom_site_B_iso_or_equiv
_atom_site_occupancy
K1  K  0  0.25  0.5  3.9  0.78
K2  K  0.15  0.15  0.15  3.9  0.22
CS  Cs  0  0  0.314  4.7  0.81
SI1  Si  0.0825  0.2023  0.3211  1.1  0.76
AL1  Al  0.0825  0.2023  0.3211  1.1  0.24
O1  O  0.128  0.128  0.3145  2  1
O2  O  0.2522  0.2522  0.4081  1.3  1
O3  O  0  0.1783  0.3369  1.7  1
O4  O  0.25  0.1085  0.3915  1.7  1

# End of data for ZK5_dehydrated


			
	