



 
#*********************************************************************************
#
# Crystallographic Information File for Dodecasil 3C 
#
# Reference : 
#   Gies, H.
#   Z. Kristallogr., 167, 73-82, (1984)
#
#
# CIF downloaded from the IZA-SC Database of Zeolite Structures
# Ch. Baerlocher and L.B. McCusker,
# Database of Zeolite Structures: http://www.iza-structure.org/databases/ 
#
#**********************************************************************************


data_Dodecasil_3C
_chemical_name_systematic 'Dodecasil 3C'

_cell_length_a      19.402
_cell_length_b      19.402
_cell_length_c      19.402 
_cell_angle_alpha   90 
_cell_angle_beta    90 
_cell_angle_gamma   90
_cell_formula_units_Z   1

_space_group.name_H-M_ref   'F d -3'
_symmetry_space_group_name_H-M   'F d -3'
_symmetry_space_group_name_Hall  '-F 2uv 2vw 3'
_space_group.IT_number  203 
_space_group.IT_coordinate_system_code  '2'

 
 loop_
_atom_site_label
_atom_site_type_symbol
_atom_site_fract_x
_atom_site_fract_y
_atom_site_fract_z
_atom_site_B_iso_or_equiv
_atom_site_occupancy
SI1  Si  0.0676  0.0676  0.37  2.04  1
SI2  Si  0.2164  0.2164  0.2164  1.53  1
SI3  Si  0.125  0.125  0.125  1.42  1
O1  O  0.0932  0.4065  -0.0001  4.97  1
O2  O  0.0433  0.2995  0.4505  6.24  1
O3  O  0.125  0.3734  0.125  4.29  1
O4  O  0.1704  0.1704  0.1704  9.32  1
N1  N  0  0  0  20  1
N2  N  0.625  0.625  0.625  20  1

# End of data for Dodecasil_3C


			
	