



 
#*********************************************************************************
#
# Crystallographic Information File for AlPO-C, dehydrated 
#
# Reference : 
#   Keller, E.B., Meier, W.M. and Kirchner, R.M.
#   Solid State Ionics, 43, 93-102, (1990)
#
#
# CIF downloaded from the IZA-SC Database of Zeolite Structures
# Ch. Baerlocher and L.B. McCusker,
# Database of Zeolite Structures: http://www.iza-structure.org/databases/ 
#
#**********************************************************************************


data_AlPO-C_dehydrated
_chemical_name_systematic 'AlPO-C, dehydrated'

_cell_length_a      19.816
_cell_length_b      10.047
_cell_length_c      8.935 
_cell_angle_alpha   90 
_cell_angle_beta    90 
_cell_angle_gamma   90
_cell_formula_units_Z   1

_space_group.name_H-M_ref   'P b c a'
_symmetry_space_group_name_H-M   'P b c a'
_symmetry_space_group_name_Hall  '-P 2ac 2ab'
_space_group.IT_number  61 

 
 loop_
_atom_site_label
_atom_site_type_symbol
_atom_site_fract_x
_atom_site_fract_y
_atom_site_fract_z
_atom_site_B_iso_or_equiv
_atom_site_occupancy
AL1  Al  0.455  0.16  0.36  0.3  1
AL2  Al  0.297  0.423  0.197  1.5  1
P1  P  0.456  0.424  0.206  2.7  1
P2  P  0.293  0.145  0.346  0.3  1
O1  O  0.384  0.465  0.222  9  1
O2  O  0.465  0.143  0.546  0.7  1
O3  O  0.5  0.539  0.238  1.5  1
O4  O  0.476  0.317  0.323  0.5  1
O5  O  0.28  0.11  0.506  1.3  1
O6  O  0.37  0.124  0.313  5.1  1
O7  O  0.278  0.284  0.297  0.1  1
O8  O  0.249  0.56  0.241  3.3  1

# End of data for AlPO-C_dehydrated


			
	